# CIF file generated by openbabel 3.1.0, see https://openbabel.org
data_I
_chemical_name_common 'XESKEN_clean_h'
_cell_length_a 28.2453
_cell_length_b 28.2453
_cell_length_c 6.2202
_cell_angle_alpha 90
_cell_angle_beta 90
_cell_angle_gamma 120
_space_group_name_H-M_alt 'P 1'
_space_group_name_Hall 'P 1'
loop_
    _symmetry_equiv_pos_as_xyz
    x,y,z
loop_
    _atom_site_label
    _atom_site_type_symbol
    _atom_site_fract_x
    _atom_site_fract_y
    _atom_site_fract_z
    _atom_site_occupancy
    Mg1      Mg       0.05694    0.69257    0.40063    1.000
    P2       P        0.09144    0.71768    0.92003    1.000
    C3       C        0.11065    0.78421    0.05033    1.000
    C4       C        0.11347    0.82593    0.40863    1.000
    C5       C        0.17417    0.78543    0.32523    1.000
    N6       N        0.11846    0.78152    0.28943    1.000
    O7       O        0.13884    0.70984    0.86163    1.000
    O8       O        0.05427    0.67103    0.06953    1.000
    O9       O        0.05962    0.71383    0.71873    1.000
    H10      H        0.15034    0.81761    0.97657    1.000
    H11      H        0.07252    0.82259    0.36843    1.000
    H12      H        0.11599    0.82059    0.58916    1.000
    H13      H        0.17882    0.77869    0.50288    1.000
    H14      H        0.17606    0.75245    0.22628    1.000
    H15      H        0.61572    0.74358    0.64395    1.000
    Mg16     Mg       0.72360    0.02591    0.73397    1.000
    P17      P        0.75810    0.05102    0.25337    1.000
    C18      C        0.77731    0.11755    0.38367    1.000
    C19      C        0.78013    0.15927    0.74197    1.000
    C20      C        0.84083    0.11877    0.65857    1.000
    N21      N        0.78512    0.11486    0.62277    1.000
    O22      O        0.80550    0.04318    0.19497    1.000
    O23      O        0.72093    0.00437    0.40287    1.000
    O24      O        0.72628    0.04717    0.05207    1.000
    H25      H        0.81700    0.15094    0.30991    1.000
    H26      H        0.73919    0.15592    0.70176    1.000
    H27      H        0.78265    0.15392    0.92250    1.000
    H28      H        0.84548    0.11203    0.83622    1.000
    H29      H        0.84273    0.08578    0.55962    1.000
    H30      H        0.28239    0.07691    0.97728    1.000
    Mg31     Mg       0.39027    0.35924    0.06730    1.000
    P32      P        0.42477    0.38435    0.58670    1.000
    C33      C        0.44398    0.45088    0.71700    1.000
    C34      C        0.44680    0.49260    0.07530    1.000
    C35      C        0.50750    0.45210    0.99190    1.000
    N36      N        0.45179    0.44819    0.95610    1.000
    O37      O        0.47217    0.37651    0.52830    1.000
    O38      O        0.38760    0.33770    0.73620    1.000
    O39      O        0.39295    0.38050    0.38540    1.000
    H40      H        0.48367    0.48428    0.64324    1.000
    H41      H        0.40586    0.48926    0.03510    1.000
    H42      H        0.44932    0.48725    0.25583    1.000
    H43      H        0.51215    0.44536    0.16955    1.000
    H44      H        0.50940    0.41912    0.89295    1.000
    H45      H        0.94906    0.41024    0.31061    1.000
    Mg46     Mg       0.30743    0.36436    0.40063    1.000
    P47      P        0.28232    0.37375    0.92003    1.000
    C48      C        0.21579    0.32643    0.05033    1.000
    C49      C        0.17407    0.28753    0.40863    1.000
    C50      C        0.21457    0.38873    0.32523    1.000
    N51      N        0.21848    0.33693    0.28943    1.000
    O52      O        0.29016    0.42899    0.86163    1.000
    O53      O        0.32897    0.38323    0.06953    1.000
    O54      O        0.28617    0.34578    0.71873    1.000
    H55      H        0.18239    0.33273    0.97657    1.000
    H56      H        0.17741    0.24993    0.36843    1.000
    H57      H        0.17941    0.29540    0.58916    1.000
    H58      H        0.22131    0.40012    0.50288    1.000
    H59      H        0.24755    0.42361    0.22628    1.000
    H60      H        0.25642    0.87215    0.64395    1.000
    Mg61     Mg       0.97409    0.69770    0.73397    1.000
    P62      P        0.94898    0.70709    0.25337    1.000
    C63      C        0.88245    0.65977    0.38367    1.000
    C64      C        0.84073    0.62087    0.74197    1.000
    C65      C        0.88123    0.72207    0.65857    1.000
    N66      N        0.88514    0.67027    0.62277    1.000
    O67      O        0.95682    0.76233    0.19497    1.000
    O68      O        0.99563    0.71657    0.40287    1.000
    O69      O        0.95283    0.67912    0.05207    1.000
    H70      H        0.84906    0.66606    0.30991    1.000
    H71      H        0.84408    0.58326    0.70176    1.000
    H72      H        0.84608    0.62873    0.92250    1.000
    H73      H        0.88797    0.73346    0.83622    1.000
    H74      H        0.91422    0.75695    0.55962    1.000
    H75      H        0.92309    0.20548    0.97728    1.000
    Mg76     Mg       0.64076    0.03103    0.06730    1.000
    P77      P        0.61565    0.04042    0.58670    1.000
    C78      C        0.54912    0.99310    0.71700    1.000
    C79      C        0.50740    0.95420    0.07530    1.000
    C80      C        0.54790    0.05540    0.99190    1.000
    N81      N        0.55181    0.00360    0.95610    1.000
    O82      O        0.62349    0.09566    0.52830    1.000
    O83      O        0.66230    0.04990    0.73620    1.000
    O84      O        0.61950    0.01245    0.38540    1.000
    H85      H        0.51572    0.99940    0.64324    1.000
    H86      H        0.51074    0.91660    0.03510    1.000
    H87      H        0.51275    0.96207    0.25583    1.000
    H88      H        0.55464    0.06679    0.16955    1.000
    H89      H        0.58088    0.09028    0.89295    1.000
    H90      H        0.58976    0.53881    0.31061    1.000
    Mg91     Mg       0.63564    0.94306    0.40063    1.000
    P92      P        0.62625    0.90856    0.92003    1.000
    C93      C        0.67357    0.88935    0.05033    1.000
    C94      C        0.71247    0.88653    0.40863    1.000
    C95      C        0.61127    0.82583    0.32523    1.000
    N96      N        0.66307    0.88154    0.28943    1.000
    O97      O        0.57101    0.86116    0.86163    1.000
    O98      O        0.61677    0.94573    0.06953    1.000
    O99      O        0.65422    0.94038    0.71873    1.000
    H100     H        0.66727    0.84966    0.97657    1.000
    H101     H        0.75007    0.92748    0.36843    1.000
    H102     H        0.70460    0.88401    0.58916    1.000
    H103     H        0.59988    0.82118    0.50288    1.000
    H104     H        0.57639    0.82394    0.22628    1.000
    H105     H        0.12785    0.38428    0.64395    1.000
    Mg106    Mg       0.30230    0.27640    0.73397    1.000
    P107     P        0.29291    0.24190    0.25337    1.000
    C108     C        0.34023    0.22269    0.38367    1.000
    C109     C        0.37913    0.21987    0.74197    1.000
    C110     C        0.27793    0.15917    0.65857    1.000
    N111     N        0.32973    0.21488    0.62277    1.000
    O112     O        0.23767    0.19450    0.19497    1.000
    O113     O        0.28343    0.27907    0.40287    1.000
    O114     O        0.32088    0.27372    0.05207    1.000
    H115     H        0.33394    0.18300    0.30991    1.000
    H116     H        0.41674    0.26081    0.70176    1.000
    H117     H        0.37127    0.21735    0.92250    1.000
    H118     H        0.26654    0.15452    0.83622    1.000
    H119     H        0.24305    0.15727    0.55962    1.000
    H120     H        0.79452    0.71761    0.97728    1.000
    Mg121    Mg       0.96897    0.60973    0.06730    1.000
    P122     P        0.95958    0.57523    0.58670    1.000
    C123     C        0.00690    0.55602    0.71700    1.000
    C124     C        0.04580    0.55320    0.07530    1.000
    C125     C        0.94460    0.49250    0.99190    1.000
    N126     N        0.99640    0.54821    0.95610    1.000
    O127     O        0.90434    0.52783    0.52830    1.000
    O128     O        0.95010    0.61240    0.73620    1.000
    O129     O        0.98755    0.60705    0.38540    1.000
    H130     H        0.00060    0.51633    0.64324    1.000
    H131     H        0.08340    0.59414    0.03510    1.000
    H132     H        0.03793    0.55068    0.25583    1.000
    H133     H        0.93321    0.48785    0.16955    1.000
    H134     H        0.90972    0.49060    0.89295    1.000
    H135     H        0.46119    0.05094    0.31061    1.000
    Mg136    Mg       0.94306    0.30743    0.59937    1.000
    P137     P        0.90856    0.28232    0.07997    1.000
    C138     C        0.88935    0.21579    0.94967    1.000
    C139     C        0.88653    0.17407    0.59137    1.000
    C140     C        0.82583    0.21457    0.67477    1.000
    N141     N        0.88154    0.21848    0.71057    1.000
    O142     O        0.86116    0.29016    0.13837    1.000
    O143     O        0.94573    0.32897    0.93047    1.000
    O144     O        0.94038    0.28617    0.28127    1.000
    H145     H        0.84966    0.18239    0.02343    1.000
    H146     H        0.92748    0.17741    0.63157    1.000
    H147     H        0.88401    0.17941    0.41084    1.000
    H148     H        0.82118    0.22131    0.49712    1.000
    H149     H        0.82394    0.24755    0.77372    1.000
    H150     H        0.38428    0.25642    0.35605    1.000
    Mg151    Mg       0.60973    0.64076    0.93270    1.000
    P152     P        0.57523    0.61565    0.41330    1.000
    C153     C        0.55602    0.54912    0.28300    1.000
    C154     C        0.55320    0.50740    0.92470    1.000
    C155     C        0.49250    0.54790    0.00810    1.000
    N156     N        0.54821    0.55181    0.04390    1.000
    O157     O        0.52783    0.62349    0.47170    1.000
    O158     O        0.61240    0.66230    0.26380    1.000
    O159     O        0.60705    0.61950    0.61460    1.000
    H160     H        0.51633    0.51572    0.35676    1.000
    H161     H        0.59414    0.51074    0.96490    1.000
    H162     H        0.55068    0.51275    0.74417    1.000
    H163     H        0.48785    0.55464    0.83045    1.000
    H164     H        0.49060    0.58088    0.10705    1.000
    H165     H        0.05094    0.58976    0.68939    1.000
    Mg166    Mg       0.27640    0.97409    0.26603    1.000
    P167     P        0.24190    0.94898    0.74663    1.000
    C168     C        0.22269    0.88245    0.61633    1.000
    C169     C        0.21987    0.84073    0.25803    1.000
    C170     C        0.15917    0.88123    0.34143    1.000
    N171     N        0.21488    0.88514    0.37723    1.000
    O172     O        0.19450    0.95682    0.80503    1.000
    O173     O        0.27907    0.99563    0.59713    1.000
    O174     O        0.27372    0.95283    0.94793    1.000
    H175     H        0.18300    0.84906    0.69009    1.000
    H176     H        0.26081    0.84408    0.29824    1.000
    H177     H        0.21735    0.84608    0.07750    1.000
    H178     H        0.15452    0.88797    0.16378    1.000
    H179     H        0.15727    0.91422    0.44038    1.000
    H180     H        0.71761    0.92309    0.02272    1.000
    Mg181    Mg       0.69257    0.63564    0.59937    1.000
    P182     P        0.71768    0.62625    0.07997    1.000
    C183     C        0.78421    0.67357    0.94967    1.000
    C184     C        0.82593    0.71247    0.59137    1.000
    C185     C        0.78543    0.61127    0.67477    1.000
    N186     N        0.78152    0.66307    0.71057    1.000
    O187     O        0.70984    0.57101    0.13837    1.000
    O188     O        0.67103    0.61677    0.93047    1.000
    O189     O        0.71383    0.65422    0.28127    1.000
    H190     H        0.81761    0.66727    0.02343    1.000
    H191     H        0.82259    0.75007    0.63157    1.000
    H192     H        0.82059    0.70460    0.41084    1.000
    H193     H        0.77869    0.59988    0.49712    1.000
    H194     H        0.75245    0.57639    0.77372    1.000
    H195     H        0.74358    0.12785    0.35605    1.000
    Mg196    Mg       0.35924    0.96897    0.93270    1.000
    P197     P        0.38435    0.95958    0.41330    1.000
    C198     C        0.45088    0.00690    0.28300    1.000
    C199     C        0.49260    0.04580    0.92470    1.000
    C200     C        0.45210    0.94460    0.00810    1.000
    N201     N        0.44819    0.99640    0.04390    1.000
    O202     O        0.37651    0.90434    0.47170    1.000
    O203     O        0.33770    0.95010    0.26380    1.000
    O204     O        0.38050    0.98755    0.61460    1.000
    H205     H        0.48428    0.00060    0.35676    1.000
    H206     H        0.48926    0.08340    0.96490    1.000
    H207     H        0.48725    0.03793    0.74417    1.000
    H208     H        0.44536    0.93321    0.83045    1.000
    H209     H        0.41912    0.90972    0.10705    1.000
    H210     H        0.41024    0.46119    0.68939    1.000
    Mg211    Mg       0.02591    0.30230    0.26603    1.000
    P212     P        0.05102    0.29291    0.74663    1.000
    C213     C        0.11755    0.34023    0.61633    1.000
    C214     C        0.15927    0.37913    0.25803    1.000
    C215     C        0.11877    0.27793    0.34143    1.000
    N216     N        0.11486    0.32973    0.37723    1.000
    O217     O        0.04318    0.23767    0.80503    1.000
    O218     O        0.00437    0.28343    0.59713    1.000
    O219     O        0.04717    0.32088    0.94793    1.000
    H220     H        0.15094    0.33394    0.69009    1.000
    H221     H        0.15592    0.41674    0.29824    1.000
    H222     H        0.15392    0.37127    0.07750    1.000
    H223     H        0.11203    0.26654    0.16378    1.000
    H224     H        0.08578    0.24305    0.44038    1.000
    H225     H        0.07691    0.79452    0.02272    1.000
    Mg226    Mg       0.36436    0.05694    0.59937    1.000
    P227     P        0.37375    0.09144    0.07997    1.000
    C228     C        0.32643    0.11065    0.94967    1.000
    C229     C        0.28753    0.11347    0.59137    1.000
    C230     C        0.38873    0.17417    0.67477    1.000
    N231     N        0.33693    0.11846    0.71057    1.000
    O232     O        0.42899    0.13884    0.13837    1.000
    O233     O        0.38323    0.05427    0.93047    1.000
    O234     O        0.34578    0.05962    0.28127    1.000
    H235     H        0.33273    0.15034    0.02343    1.000
    H236     H        0.24993    0.07252    0.63157    1.000
    H237     H        0.29540    0.11599    0.41084    1.000
    H238     H        0.40012    0.17882    0.49712    1.000
    H239     H        0.42361    0.17606    0.77372    1.000
    H240     H        0.87215    0.61572    0.35605    1.000
    Mg241    Mg       0.03103    0.39027    0.93270    1.000
    P242     P        0.04042    0.42477    0.41330    1.000
    C243     C        0.99310    0.44398    0.28300    1.000
    C244     C        0.95420    0.44680    0.92470    1.000
    C245     C        0.05540    0.50750    0.00810    1.000
    N246     N        0.00360    0.45179    0.04390    1.000
    O247     O        0.09566    0.47217    0.47170    1.000
    O248     O        0.04990    0.38760    0.26380    1.000
    O249     O        0.01245    0.39295    0.61460    1.000
    H250     H        0.99940    0.48367    0.35676    1.000
    H251     H        0.91660    0.40586    0.96490    1.000
    H252     H        0.96207    0.44932    0.74417    1.000
    H253     H        0.06679    0.51215    0.83045    1.000
    H254     H        0.09028    0.50940    0.10705    1.000
    H255     H        0.53881    0.94906    0.68939    1.000
    Mg256    Mg       0.69770    0.72360    0.26603    1.000
    P257     P        0.70709    0.75810    0.74663    1.000
    C258     C        0.65977    0.77731    0.61633    1.000
    C259     C        0.62087    0.78013    0.25803    1.000
    C260     C        0.72207    0.84083    0.34143    1.000
    N261     N        0.67027    0.78512    0.37723    1.000
    O262     O        0.76233    0.80550    0.80503    1.000
    O263     O        0.71657    0.72093    0.59713    1.000
    O264     O        0.67912    0.72628    0.94793    1.000
    H265     H        0.66606    0.81700    0.69009    1.000
    H266     H        0.58326    0.73919    0.29824    1.000
    H267     H        0.62873    0.78265    0.07750    1.000
    H268     H        0.73346    0.84548    0.16378    1.000
    H269     H        0.75695    0.84273    0.44038    1.000
    H270     H        0.20548    0.28239    0.02272    1.000
