# CIF file generated by openbabel 3.1.0, see https://openbabel.org
data_I
_chemical_name_common 'TIQHIL_clean'
_cell_length_a 12.213
_cell_length_b 12.213
_cell_length_c 12.345
_cell_angle_alpha 90
_cell_angle_beta 90
_cell_angle_gamma 90
_space_group_name_H-M_alt 'P 1'
_space_group_name_Hall 'P 1'
loop_
    _symmetry_equiv_pos_as_xyz
    x,y,z
loop_
    _atom_site_label
    _atom_site_type_symbol
    _atom_site_fract_x
    _atom_site_fract_y
    _atom_site_fract_z
    _atom_site_occupancy
    Na1      Na       0.27950    0.47170    0.50460    1.000
    Na2      Na       0.72050    0.52830    0.50460    1.000
    Na3      Na       0.47170    0.72050    0.49540    1.000
    Na4      Na       0.52830    0.27950    0.49540    1.000
    Na5      Na       0.50000    0.00000    0.51210    1.000
    Na6      Na       0.00000    0.50000    0.48790    1.000
    Dy1      Dy       0.00000    0.00000    0.00000    1.000
    H1       H        0.27940    0.10480    0.12340    1.000
    H2       H        0.35040    0.11860    0.29490    1.000
    H3       H        0.05820    0.22390    0.40120    1.000
    H4       H        0.97920    0.39050    0.26610    1.000
    H5       H        0.67480    0.33230    0.16140    1.000
    H6       H        0.72520    0.15520    0.11950    1.000
    H7       H        0.72060    0.89520    0.12340    1.000
    H8       H        0.64960    0.88140    0.29490    1.000
    H9       H        0.94180    0.77610    0.40120    1.000
    H10      H        0.02080    0.60950    0.26610    1.000
    H11      H        0.32520    0.66770    0.16140    1.000
    H12      H        0.27480    0.84480    0.11950    1.000
    H13      H        0.10480    0.72060    0.87660    1.000
    H14      H        0.11860    0.64960    0.70510    1.000
    H15      H        0.22390    0.94180    0.59880    1.000
    H16      H        0.39050    0.02080    0.73390    1.000
    H17      H        0.33230    0.32520    0.83860    1.000
    H18      H        0.15520    0.27480    0.88050    1.000
    H19      H        0.89520    0.27940    0.87660    1.000
    H20      H        0.88140    0.35040    0.70510    1.000
    H21      H        0.77610    0.05820    0.59880    1.000
    H22      H        0.60950    0.97920    0.73390    1.000
    H23      H        0.66770    0.67480    0.83860    1.000
    H24      H        0.84480    0.72520    0.88050    1.000
    C1       C        0.23560    0.13040    0.17960    1.000
    C2       C        0.27760    0.13670    0.28210    1.000
    C3       C        0.21100    0.17030    0.36640    1.000
    C4       C        0.10360    0.20020    0.34550    1.000
    C5       C        0.06510    0.19420    0.24010    1.000
    C6       C        0.95550    0.23580    0.21250    1.000
    C7       C        0.92700    0.34310    0.23770    1.000
    C8       C        0.82110    0.37940    0.22070    1.000
    C9       C        0.74580    0.30860    0.17520    1.000
    C10      C        0.77600    0.20260    0.15030    1.000
    C11      C        0.76440    0.86960    0.17960    1.000
    C12      C        0.72240    0.86330    0.28210    1.000
    C13      C        0.78900    0.82970    0.36640    1.000
    C14      C        0.89640    0.79980    0.34550    1.000
    C15      C        0.93490    0.80580    0.24010    1.000
    C16      C        0.04450    0.76420    0.21250    1.000
    C17      C        0.07300    0.65690    0.23770    1.000
    C18      C        0.17890    0.62060    0.22070    1.000
    C19      C        0.25420    0.69140    0.17520    1.000
    C20      C        0.22400    0.79740    0.15030    1.000
    C21      C        0.13040    0.76440    0.82040    1.000
    C22      C        0.13670    0.72240    0.71790    1.000
    C23      C        0.17030    0.78900    0.63360    1.000
    C24      C        0.20020    0.89640    0.65450    1.000
    C25      C        0.19420    0.93490    0.75990    1.000
    C26      C        0.23580    0.04450    0.78750    1.000
    C27      C        0.34310    0.07300    0.76230    1.000
    C28      C        0.37940    0.17890    0.77930    1.000
    C29      C        0.30860    0.25420    0.82480    1.000
    C30      C        0.20260    0.22400    0.84970    1.000
    C31      C        0.86960    0.23560    0.82040    1.000
    C32      C        0.86330    0.27760    0.71790    1.000
    C33      C        0.82970    0.21100    0.63360    1.000
    C34      C        0.79980    0.10360    0.65450    1.000
    C35      C        0.80580    0.06510    0.75990    1.000
    C36      C        0.76420    0.95550    0.78750    1.000
    C37      C        0.65690    0.92700    0.76230    1.000
    C38      C        0.62060    0.82110    0.77930    1.000
    C39      C        0.69140    0.74580    0.82480    1.000
    C40      C        0.79740    0.77600    0.84970    1.000
    S1       S        0.26520    0.18292    0.49998    1.000
    S2       S        0.78663    0.51534    0.25906    1.000
    S3       S        0.73480    0.81708    0.49998    1.000
    S4       S        0.21337    0.48466    0.25906    1.000
    S5       S        0.18292    0.73480    0.50002    1.000
    S6       S        0.51534    0.21337    0.74094    1.000
    S7       S        0.81708    0.26520    0.50002    1.000
    S8       S        0.48466    0.78663    0.74094    1.000
    N1       N        0.13260    0.16040    0.15910    1.000
    N2       N        0.87810    0.16750    0.17000    1.000
    N3       N        0.86740    0.83960    0.15910    1.000
    N4       N        0.12190    0.83250    0.17000    1.000
    N5       N        0.16040    0.86740    0.84090    1.000
    N6       N        0.16750    0.12190    0.83000    1.000
    N7       N        0.83960    0.13260    0.84090    1.000
    N8       N        0.83250    0.87810    0.83000    1.000
    Cl1      Cl       0.50000    0.50000    0.50000    1.000
    O1       O        0.09490    0.15470    0.05830    1.000
    O2       O        0.90370    0.06450    0.15260    1.000
    O3       O        0.33050    0.08480    0.51360    1.000
    O4       O        0.33150    0.28230    0.49740    1.000
    O5       O        0.17300    0.19110    0.57240    1.000
    O6       O        0.85720    0.54120    0.34880    1.000
    O7       O        0.80650    0.58260    0.16580    1.000
    O8       O        0.67300    0.50970    0.29150    1.000
    O9       O        0.58350    0.11690    0.38240    1.000
    O10      O        0.90510    0.84530    0.05830    1.000
    O11      O        0.09630    0.93550    0.15260    1.000
    O12      O        0.66950    0.91520    0.51360    1.000
    O13      O        0.66850    0.71770    0.49740    1.000
    O14      O        0.82700    0.80890    0.57240    1.000
    O15      O        0.14280    0.45880    0.34880    1.000
    O16      O        0.19350    0.41740    0.16580    1.000
    O17      O        0.32700    0.49030    0.29150    1.000
    O18      O        0.41650    0.88310    0.38240    1.000
    O19      O        0.15470    0.90510    0.94170    1.000
    O20      O        0.06450    0.09630    0.84740    1.000
    O21      O        0.08480    0.66950    0.48640    1.000
    O22      O        0.28230    0.66850    0.50260    1.000
    O23      O        0.19110    0.82700    0.42760    1.000
    O24      O        0.54120    0.14280    0.65120    1.000
    O25      O        0.58260    0.19350    0.83420    1.000
    O26      O        0.50970    0.32700    0.70850    1.000
    O27      O        0.11690    0.41650    0.61760    1.000
    O28      O        0.84530    0.09490    0.94170    1.000
    O29      O        0.93550    0.90370    0.84740    1.000
    O30      O        0.91520    0.33050    0.48640    1.000
    O31      O        0.71770    0.33150    0.50260    1.000
    O32      O        0.80890    0.17300    0.42760    1.000
    O33      O        0.45880    0.85720    0.65120    1.000
    O34      O        0.41740    0.80650    0.83420    1.000
    O35      O        0.49030    0.67300    0.70850    1.000
    O36      O        0.88310    0.58350    0.61760    1.000
