# CIF file generated by openbabel 3.1.0, see https://openbabel.org
data_I
_chemical_name_common 'image0'
_cell_length_a 33.137
_cell_length_b 9.7145
_cell_length_c 27.314
_cell_angle_alpha 90
_cell_angle_beta 107.642
_cell_angle_gamma 90
_space_group_name_H-M_alt 'P 1'
_space_group_name_Hall 'P 1'
loop_
    _symmetry_equiv_pos_as_xyz
    x,y,z
loop_
    _atom_site_label
    _atom_site_type_symbol
    _atom_site_fract_x
    _atom_site_fract_y
    _atom_site_fract_z
    _atom_site_occupancy
    Tb1      Tb       0.05228    0.11314    0.50238    1.000
    C1       C        0.37642    0.11460    0.71760    1.000
    N1       N        0.34090    0.98130    0.62906    1.000
    N2       N        0.33419    0.12110    0.69799    1.000
    C2       C        0.31809    0.05240    0.65359    1.000
    N3       N        0.40183    0.04970    0.69557    1.000
    C3       C        0.38248    0.98450    0.65170    1.000
    O1       O        0.11825    0.17990    0.56719    1.000
    O2       O        0.47755    0.59660    0.52943    1.000
    O3       O        0.52448    0.76180    0.55432    1.000
    O4       O        0.12095    0.00150    0.51977    1.000
    C4       C        0.13832    0.08540    0.55488    1.000
    C5       C        0.46147    0.78010    0.57813    1.000
    C6       C        0.48944    0.70820    0.55206    1.000
    C7       C        0.39362    0.81010    0.59090    1.000
    H1       H        0.36450    0.78670    0.58270    1.000
    C8       C        0.27171    0.05750    0.62978    1.000
    C9       C        0.18476    0.07090    0.58212    1.000
    C10      C        0.41913    0.74090    0.56770    1.000
    H2       H        0.40800    0.66700    0.54470    1.000
    C11      C        0.47754    0.88480    0.61230    1.000
    H3       H        0.50620    0.91230    0.61890    1.000
    C12      C        0.24725    0.14330    0.64850    1.000
    H4       H        0.25990    0.19760    0.67810    1.000
    O5       O        0.43968    0.47500    0.92443    1.000
    O6       O        0.49186    0.32110    0.93705    1.000
    C13      C        0.45731    0.37500    0.91192    1.000
    C14      C        0.39431    0.34150    0.83341    1.000
    H5       H        0.37950    0.40860    0.84660    1.000
    C15      C        0.20363    0.15160    0.62430    1.000
    H6       H        0.18690    0.21320    0.63710    1.000
    C16      C        0.41004    0.91280    0.62570    1.000
    C17      C        0.43561    0.30730    0.86082    1.000
    C18      C        0.25292    0.97390    0.58780    1.000
    H7       H        0.26980    0.91250    0.57530    1.000
    C19      C        0.20939    0.97960    0.56390    1.000
    H8       H        0.19650    0.92190    0.53530    1.000
    C20      C        0.45253    0.94980    0.63700    1.000
    H9       H        0.46410    0.01960    0.66160    1.000
    C21      C        0.37461    0.27810    0.78680    1.000
    H10      H        0.34610    0.30040    0.76850    1.000
    C22      C        0.45708    0.20930    0.84190    1.000
    H11      H        0.48520    0.18450    0.86100    1.000
    C23      C        0.39625    0.18290    0.76700    1.000
    C24      C        0.43777    0.14730    0.79520    1.000
    H12      H        0.45270    0.08030    0.78210    1.000
    Tb2      Tb       0.55228    0.61314    0.50238    1.000
    C25      C        0.87642    0.61460    0.71760    1.000
    N4       N        0.84090    0.48130    0.62906    1.000
    N5       N        0.83419    0.62110    0.69799    1.000
    C26      C        0.81809    0.55240    0.65359    1.000
    N6       N        0.90183    0.54970    0.69557    1.000
    C27      C        0.88248    0.48450    0.65170    1.000
    O7       O        0.61825    0.67990    0.56719    1.000
    O8       O        0.97755    0.09660    0.52943    1.000
    O9       O        0.02448    0.26180    0.55432    1.000
    O10      O        0.62095    0.50150    0.51977    1.000
    C28      C        0.63832    0.58540    0.55488    1.000
    C29      C        0.96147    0.28010    0.57813    1.000
    C30      C        0.98944    0.20820    0.55206    1.000
    C31      C        0.89362    0.31010    0.59090    1.000
    H13      H        0.86450    0.28670    0.58270    1.000
    C32      C        0.77171    0.55750    0.62978    1.000
    C33      C        0.68476    0.57090    0.58212    1.000
    C34      C        0.91913    0.24090    0.56770    1.000
    H14      H        0.90800    0.16700    0.54470    1.000
    C35      C        0.97754    0.38480    0.61230    1.000
    H15      H        0.00620    0.41230    0.61890    1.000
    C36      C        0.74725    0.64330    0.64850    1.000
    H16      H        0.75990    0.69760    0.67810    1.000
    O11      O        0.93968    0.97500    0.92443    1.000
    O12      O        0.99186    0.82110    0.93705    1.000
    C37      C        0.95731    0.87500    0.91192    1.000
    C38      C        0.89431    0.84150    0.83341    1.000
    H17      H        0.87950    0.90860    0.84660    1.000
    C39      C        0.70363    0.65160    0.62430    1.000
    H18      H        0.68690    0.71320    0.63710    1.000
    C40      C        0.91004    0.41280    0.62570    1.000
    C41      C        0.93561    0.80730    0.86082    1.000
    C42      C        0.75292    0.47390    0.58780    1.000
    H19      H        0.76980    0.41250    0.57530    1.000
    C43      C        0.70939    0.47960    0.56390    1.000
    H20      H        0.69650    0.42190    0.53530    1.000
    C44      C        0.95253    0.44980    0.63700    1.000
    H21      H        0.96410    0.51960    0.66160    1.000
    C45      C        0.87461    0.77810    0.78680    1.000
    H22      H        0.84610    0.80040    0.76850    1.000
    C46      C        0.95708    0.70930    0.84190    1.000
    H23      H        0.98520    0.68450    0.86100    1.000
    C47      C        0.89625    0.68290    0.76700    1.000
    C48      C        0.93777    0.64730    0.79520    1.000
    H24      H        0.95270    0.58030    0.78210    1.000
    Tb3      Tb       0.94772    0.11314    0.99762    1.000
    C49      C        0.62358    0.11460    0.78240    1.000
    N7       N        0.65910    0.98130    0.87094    1.000
    N8       N        0.66581    0.12110    0.80201    1.000
    C50      C        0.68191    0.05240    0.84641    1.000
    N9       N        0.59817    0.04970    0.80443    1.000
    C51      C        0.61752    0.98450    0.84830    1.000
    O13      O        0.88175    0.17990    0.93281    1.000
    O14      O        0.52245    0.59660    0.97057    1.000
    O15      O        0.47552    0.76180    0.94568    1.000
    O16      O        0.87905    0.00150    0.98023    1.000
    C52      C        0.86168    0.08540    0.94512    1.000
    C53      C        0.53853    0.78010    0.92187    1.000
    C54      C        0.51056    0.70820    0.94794    1.000
    C55      C        0.60638    0.81010    0.90910    1.000
    H25      H        0.63550    0.78670    0.91730    1.000
    C56      C        0.72829    0.05750    0.87022    1.000
    C57      C        0.81524    0.07090    0.91788    1.000
    C58      C        0.58087    0.74090    0.93230    1.000
    H26      H        0.59200    0.66700    0.95530    1.000
    C59      C        0.52246    0.88480    0.88770    1.000
    H27      H        0.49380    0.91230    0.88110    1.000
    C60      C        0.75275    0.14330    0.85150    1.000
    H28      H        0.74010    0.19760    0.82190    1.000
    O17      O        0.56032    0.47500    0.57557    1.000
    O18      O        0.50814    0.32110    0.56295    1.000
    C61      C        0.54269    0.37500    0.58808    1.000
    C62      C        0.60569    0.34150    0.66659    1.000
    H29      H        0.62050    0.40860    0.65340    1.000
    C63      C        0.79637    0.15160    0.87570    1.000
    H30      H        0.81310    0.21320    0.86290    1.000
    C64      C        0.58996    0.91280    0.87430    1.000
    C65      C        0.56439    0.30730    0.63918    1.000
    C66      C        0.74708    0.97390    0.91220    1.000
    H31      H        0.73020    0.91250    0.92470    1.000
    C67      C        0.79061    0.97960    0.93610    1.000
    H32      H        0.80350    0.92190    0.96470    1.000
    C68      C        0.54747    0.94980    0.86300    1.000
    H33      H        0.53590    0.01960    0.83840    1.000
    C69      C        0.62539    0.27810    0.71320    1.000
    H34      H        0.65390    0.30040    0.73150    1.000
    C70      C        0.54292    0.20930    0.65810    1.000
    H35      H        0.51480    0.18450    0.63900    1.000
    C71      C        0.60375    0.18290    0.73300    1.000
    C72      C        0.56223    0.14730    0.70480    1.000
    H36      H        0.54730    0.08030    0.71790    1.000
    Tb4      Tb       0.44772    0.61314    0.99762    1.000
    C73      C        0.12358    0.61460    0.78240    1.000
    N10      N        0.15910    0.48130    0.87094    1.000
    N11      N        0.16581    0.62110    0.80201    1.000
    C74      C        0.18191    0.55240    0.84641    1.000
    N12      N        0.09817    0.54970    0.80443    1.000
    C75      C        0.11752    0.48450    0.84830    1.000
    O19      O        0.38175    0.67990    0.93281    1.000
    O20      O        0.02245    0.09660    0.97057    1.000
    O21      O        0.97552    0.26180    0.94568    1.000
    O22      O        0.37905    0.50150    0.98023    1.000
    C76      C        0.36168    0.58540    0.94512    1.000
    C77      C        0.03853    0.28010    0.92187    1.000
    C78      C        0.01056    0.20820    0.94794    1.000
    C79      C        0.10638    0.31010    0.90910    1.000
    H37      H        0.13550    0.28670    0.91730    1.000
    C80      C        0.22829    0.55750    0.87022    1.000
    C81      C        0.31524    0.57090    0.91788    1.000
    C82      C        0.08087    0.24090    0.93230    1.000
    H38      H        0.09200    0.16700    0.95530    1.000
    C83      C        0.02246    0.38480    0.88770    1.000
    H39      H        0.99380    0.41230    0.88110    1.000
    C84      C        0.25275    0.64330    0.85150    1.000
    H40      H        0.24010    0.69760    0.82190    1.000
    O23      O        0.06032    0.97500    0.57557    1.000
    O24      O        0.00814    0.82110    0.56295    1.000
    C85      C        0.04269    0.87500    0.58808    1.000
    C86      C        0.10569    0.84150    0.66659    1.000
    H41      H        0.12050    0.90860    0.65340    1.000
    C87      C        0.29637    0.65160    0.87570    1.000
    H42      H        0.31310    0.71320    0.86290    1.000
    C88      C        0.08996    0.41280    0.87430    1.000
    C89      C        0.06439    0.80730    0.63918    1.000
    C90      C        0.24708    0.47390    0.91220    1.000
    H43      H        0.23020    0.41250    0.92470    1.000
    C91      C        0.29061    0.47960    0.93610    1.000
    H44      H        0.30350    0.42190    0.96470    1.000
    C92      C        0.04747    0.44980    0.86300    1.000
    H45      H        0.03590    0.51960    0.83840    1.000
    C93      C        0.12539    0.77810    0.71320    1.000
    H46      H        0.15390    0.80040    0.73150    1.000
    C94      C        0.04292    0.70930    0.65810    1.000
    H47      H        0.01480    0.68450    0.63900    1.000
    C95      C        0.10375    0.68290    0.73300    1.000
    C96      C        0.06223    0.64730    0.70480    1.000
    H48      H        0.04730    0.58030    0.71790    1.000
    Tb5      Tb       0.94772    0.88686    0.49762    1.000
    C97      C        0.62358    0.88540    0.28240    1.000
    N13      N        0.65910    0.01870    0.37094    1.000
    N14      N        0.66581    0.87890    0.30201    1.000
    C98      C        0.68191    0.94760    0.34641    1.000
    N15      N        0.59817    0.95030    0.30443    1.000
    C99      C        0.61752    0.01550    0.34830    1.000
    O25      O        0.88175    0.82010    0.43281    1.000
    O26      O        0.52245    0.40340    0.47057    1.000
    O27      O        0.47552    0.23820    0.44568    1.000
    O28      O        0.87905    0.99850    0.48023    1.000
    C100     C        0.86168    0.91460    0.44512    1.000
    C101     C        0.53853    0.21990    0.42187    1.000
    C102     C        0.51056    0.29180    0.44794    1.000
    C103     C        0.60638    0.18990    0.40910    1.000
    H49      H        0.63550    0.21330    0.41730    1.000
    C104     C        0.72829    0.94250    0.37022    1.000
    C105     C        0.81524    0.92910    0.41788    1.000
    C106     C        0.58087    0.25910    0.43230    1.000
    H50      H        0.59200    0.33300    0.45530    1.000
    C107     C        0.52246    0.11520    0.38770    1.000
    H51      H        0.49380    0.08770    0.38110    1.000
    C108     C        0.75275    0.85670    0.35150    1.000
    H52      H        0.74010    0.80240    0.32190    1.000
    O29      O        0.56032    0.52500    0.07557    1.000
    O30      O        0.50814    0.67890    0.06295    1.000
    C109     C        0.54269    0.62500    0.08808    1.000
    C110     C        0.60569    0.65850    0.16659    1.000
    H53      H        0.62050    0.59140    0.15340    1.000
    C111     C        0.79637    0.84840    0.37570    1.000
    H54      H        0.81310    0.78680    0.36290    1.000
    C112     C        0.58996    0.08720    0.37430    1.000
    C113     C        0.56439    0.69270    0.13918    1.000
    C114     C        0.74708    0.02610    0.41220    1.000
    H55      H        0.73020    0.08750    0.42470    1.000
    C115     C        0.79061    0.02040    0.43610    1.000
    H56      H        0.80350    0.07810    0.46470    1.000
    C116     C        0.54747    0.05020    0.36300    1.000
    H57      H        0.53590    0.98040    0.33840    1.000
    C117     C        0.62539    0.72190    0.21320    1.000
    H58      H        0.65390    0.69960    0.23150    1.000
    C118     C        0.54292    0.79070    0.15810    1.000
    H59      H        0.51480    0.81550    0.13900    1.000
    C119     C        0.60375    0.81710    0.23300    1.000
    C120     C        0.56223    0.85270    0.20480    1.000
    H60      H        0.54730    0.91970    0.21790    1.000
    Tb6      Tb       0.44772    0.38686    0.49762    1.000
    C121     C        0.12358    0.38540    0.28240    1.000
    N16      N        0.15910    0.51870    0.37094    1.000
    N17      N        0.16581    0.37890    0.30201    1.000
    C122     C        0.18191    0.44760    0.34641    1.000
    N18      N        0.09817    0.45030    0.30443    1.000
    C123     C        0.11752    0.51550    0.34830    1.000
    O31      O        0.38175    0.32010    0.43281    1.000
    O32      O        0.02245    0.90340    0.47057    1.000
    O33      O        0.97552    0.73820    0.44568    1.000
    O34      O        0.37905    0.49850    0.48023    1.000
    C124     C        0.36168    0.41460    0.44512    1.000
    C125     C        0.03853    0.71990    0.42187    1.000
    C126     C        0.01056    0.79180    0.44794    1.000
    C127     C        0.10638    0.68990    0.40910    1.000
    H61      H        0.13550    0.71330    0.41730    1.000
    C128     C        0.22829    0.44250    0.37022    1.000
    C129     C        0.31524    0.42910    0.41788    1.000
    C130     C        0.08087    0.75910    0.43230    1.000
    H62      H        0.09200    0.83300    0.45530    1.000
    C131     C        0.02246    0.61520    0.38770    1.000
    H63      H        0.99380    0.58770    0.38110    1.000
    C132     C        0.25275    0.35670    0.35150    1.000
    H64      H        0.24010    0.30240    0.32190    1.000
    O35      O        0.06032    0.02500    0.07557    1.000
    O36      O        0.00814    0.17890    0.06295    1.000
    C133     C        0.04269    0.12500    0.08808    1.000
    C134     C        0.10569    0.15850    0.16659    1.000
    H65      H        0.12050    0.09140    0.15340    1.000
    C135     C        0.29637    0.34840    0.37570    1.000
    H66      H        0.31310    0.28680    0.36290    1.000
    C136     C        0.08996    0.58720    0.37430    1.000
    C137     C        0.06439    0.19270    0.13918    1.000
    C138     C        0.24708    0.52610    0.41220    1.000
    H67      H        0.23020    0.58750    0.42470    1.000
    C139     C        0.29061    0.52040    0.43610    1.000
    H68      H        0.30350    0.57810    0.46470    1.000
    C140     C        0.04747    0.55020    0.36300    1.000
    H69      H        0.03590    0.48040    0.33840    1.000
    C141     C        0.12539    0.22190    0.21320    1.000
    H70      H        0.15390    0.19960    0.23150    1.000
    C142     C        0.04292    0.29070    0.15810    1.000
    H71      H        0.01480    0.31550    0.13900    1.000
    C143     C        0.10375    0.31710    0.23300    1.000
    C144     C        0.06223    0.35270    0.20480    1.000
    H72      H        0.04730    0.41970    0.21790    1.000
    Tb7      Tb       0.05228    0.88686    0.00238    1.000
    C145     C        0.37642    0.88540    0.21760    1.000
    N19      N        0.34090    0.01870    0.12906    1.000
    N20      N        0.33419    0.87890    0.19799    1.000
    C146     C        0.31809    0.94760    0.15359    1.000
    N21      N        0.40183    0.95030    0.19557    1.000
    C147     C        0.38248    0.01550    0.15170    1.000
    O37      O        0.11825    0.82010    0.06719    1.000
    O38      O        0.47755    0.40340    0.02943    1.000
    O39      O        0.52448    0.23820    0.05432    1.000
    O40      O        0.12095    0.99850    0.01977    1.000
    C148     C        0.13832    0.91460    0.05488    1.000
    C149     C        0.46147    0.21990    0.07813    1.000
    C150     C        0.48944    0.29180    0.05206    1.000
    C151     C        0.39362    0.18990    0.09090    1.000
    H73      H        0.36450    0.21330    0.08270    1.000
    C152     C        0.27171    0.94250    0.12978    1.000
    C153     C        0.18476    0.92910    0.08212    1.000
    C154     C        0.41913    0.25910    0.06770    1.000
    H74      H        0.40800    0.33300    0.04470    1.000
    C155     C        0.47754    0.11520    0.11230    1.000
    H75      H        0.50620    0.08770    0.11890    1.000
    C156     C        0.24725    0.85670    0.14850    1.000
    H76      H        0.25990    0.80240    0.17810    1.000
    O41      O        0.43968    0.52500    0.42443    1.000
    O42      O        0.49186    0.67890    0.43705    1.000
    C157     C        0.45731    0.62500    0.41192    1.000
    C158     C        0.39431    0.65850    0.33341    1.000
    H77      H        0.37950    0.59140    0.34660    1.000
    C159     C        0.20363    0.84840    0.12430    1.000
    H78      H        0.18690    0.78680    0.13710    1.000
    C160     C        0.41004    0.08720    0.12570    1.000
    C161     C        0.43561    0.69270    0.36082    1.000
    C162     C        0.25292    0.02610    0.08780    1.000
    H79      H        0.26980    0.08750    0.07530    1.000
    C163     C        0.20939    0.02040    0.06390    1.000
    H80      H        0.19650    0.07810    0.03530    1.000
    C164     C        0.45253    0.05020    0.13700    1.000
    H81      H        0.46410    0.98040    0.16160    1.000
    C165     C        0.37461    0.72190    0.28680    1.000
    H82      H        0.34610    0.69960    0.26850    1.000
    C166     C        0.45708    0.79070    0.34190    1.000
    H83      H        0.48520    0.81550    0.36100    1.000
    C167     C        0.39625    0.81710    0.26700    1.000
    C168     C        0.43777    0.85270    0.29520    1.000
    H84      H        0.45270    0.91970    0.28210    1.000
    Tb8      Tb       0.55228    0.38686    0.00238    1.000
    C169     C        0.87642    0.38540    0.21760    1.000
    N22      N        0.84090    0.51870    0.12906    1.000
    N23      N        0.83419    0.37890    0.19799    1.000
    C170     C        0.81809    0.44760    0.15359    1.000
    N24      N        0.90183    0.45030    0.19557    1.000
    C171     C        0.88248    0.51550    0.15170    1.000
    O43      O        0.61825    0.32010    0.06719    1.000
    O44      O        0.97755    0.90340    0.02943    1.000
    O45      O        0.02448    0.73820    0.05432    1.000
    O46      O        0.62095    0.49850    0.01977    1.000
    C172     C        0.63832    0.41460    0.05488    1.000
    C173     C        0.96147    0.71990    0.07813    1.000
    C174     C        0.98944    0.79180    0.05206    1.000
    C175     C        0.89362    0.68990    0.09090    1.000
    H85      H        0.86450    0.71330    0.08270    1.000
    C176     C        0.77171    0.44250    0.12978    1.000
    C177     C        0.68476    0.42910    0.08212    1.000
    C178     C        0.91913    0.75910    0.06770    1.000
    H86      H        0.90800    0.83300    0.04470    1.000
    C179     C        0.97754    0.61520    0.11230    1.000
    H87      H        0.00620    0.58770    0.11890    1.000
    C180     C        0.74725    0.35670    0.14850    1.000
    H88      H        0.75990    0.30240    0.17810    1.000
    O47      O        0.93968    0.02500    0.42443    1.000
    O48      O        0.99186    0.17890    0.43705    1.000
    C181     C        0.95731    0.12500    0.41192    1.000
    C182     C        0.89431    0.15850    0.33341    1.000
    H89      H        0.87950    0.09140    0.34660    1.000
    C183     C        0.70363    0.34840    0.12430    1.000
    H90      H        0.68690    0.28680    0.13710    1.000
    C184     C        0.91004    0.58720    0.12570    1.000
    C185     C        0.93561    0.19270    0.36082    1.000
    C186     C        0.75292    0.52610    0.08780    1.000
    H91      H        0.76980    0.58750    0.07530    1.000
    C187     C        0.70939    0.52040    0.06390    1.000
    H92      H        0.69650    0.57810    0.03530    1.000
    C188     C        0.95253    0.55020    0.13700    1.000
    H93      H        0.96410    0.48040    0.16160    1.000
    C189     C        0.87461    0.22190    0.28680    1.000
    H94      H        0.84610    0.19960    0.26850    1.000
    C190     C        0.95708    0.29070    0.34190    1.000
    H95      H        0.98520    0.31550    0.36100    1.000
    C191     C        0.89625    0.31710    0.26700    1.000
    C192     C        0.93777    0.35270    0.29520    1.000
    H96      H        0.95270    0.41970    0.28210    1.000
