# CIF file generated by openbabel 3.1.0, see https://openbabel.org
data_I
_chemical_name_common 'image0'
_cell_length_a 19.9091
_cell_length_b 19.9091
_cell_length_c 19.9091
_cell_angle_alpha 90
_cell_angle_beta 90
_cell_angle_gamma 90
_space_group_name_H-M_alt 'P 1'
_space_group_name_Hall 'P 1'
loop_
    _symmetry_equiv_pos_as_xyz
    x,y,z
loop_
    _atom_site_label
    _atom_site_type_symbol
    _atom_site_fract_x
    _atom_site_fract_y
    _atom_site_fract_z
    _atom_site_occupancy
    Nd1      Nd       0.49227    0.25293    0.65244    1.000
    O1       O        0.45090    0.35402    0.70727    1.000
    O2       O        0.54033    0.15721    0.71111    1.000
    N1       N        0.49961    0.25834    0.78130    1.000
    O3       O        0.58530    0.20469    0.58109    1.000
    O4       O        0.39190    0.29811    0.58914    1.000
    C1       C        0.44555    0.36457    0.76974    1.000
    C2       C        0.55431    0.15278    0.77253    1.000
    C3       C        0.52666    0.20810    0.81633    1.000
    C4       C        0.47410    0.31090    0.81499    1.000
    C5       C        0.52940    0.20800    0.88567    1.000
    C6       C        0.47350    0.31370    0.88400    1.000
    H1       H        0.54950    0.17270    0.90880    1.000
    C7       C        0.50160    0.26170    0.91960    1.000
    H2       H        0.45450    0.35010    0.90610    1.000
    H3       H        0.50180    0.26260    0.96630    1.000
    Nd2      Nd       0.00773    0.74707    0.15244    1.000
    O5       O        0.04910    0.64598    0.20727    1.000
    O6       O        0.95967    0.84279    0.21111    1.000
    N2       N        0.00039    0.74166    0.28130    1.000
    O7       O        0.91470    0.79531    0.08109    1.000
    O8       O        0.10810    0.70189    0.08914    1.000
    C8       C        0.05445    0.63543    0.26974    1.000
    C9       C        0.94569    0.84722    0.27253    1.000
    C10      C        0.97334    0.79190    0.31633    1.000
    C11      C        0.02590    0.68910    0.31499    1.000
    C12      C        0.97060    0.79200    0.38567    1.000
    C13      C        0.02650    0.68630    0.38400    1.000
    H4       H        0.95050    0.82730    0.40880    1.000
    C14      C        0.99840    0.73830    0.41960    1.000
    H5       H        0.04550    0.64990    0.40610    1.000
    H6       H        0.99820    0.73740    0.46630    1.000
    Nd3      Nd       0.50773    0.75293    0.84756    1.000
    O9       O        0.54910    0.85402    0.79273    1.000
    O10      O        0.45967    0.65721    0.78889    1.000
    N3       N        0.50039    0.75834    0.71870    1.000
    O11      O        0.41470    0.70469    0.91891    1.000
    O12      O        0.60810    0.79811    0.91086    1.000
    C15      C        0.55445    0.86457    0.73026    1.000
    C16      C        0.44569    0.65278    0.72747    1.000
    C17      C        0.47334    0.70810    0.68367    1.000
    C18      C        0.52590    0.81090    0.68501    1.000
    C19      C        0.47060    0.70800    0.61433    1.000
    C20      C        0.52650    0.81370    0.61600    1.000
    H7       H        0.45050    0.67270    0.59120    1.000
    C21      C        0.49840    0.76170    0.58040    1.000
    H8       H        0.54550    0.85010    0.59390    1.000
    H9       H        0.49820    0.76260    0.53370    1.000
    Nd4      Nd       0.99227    0.24707    0.34756    1.000
    O13      O        0.95090    0.14598    0.29273    1.000
    O14      O        0.04033    0.34279    0.28889    1.000
    N4       N        0.99961    0.24166    0.21870    1.000
    O15      O        0.08530    0.29531    0.41891    1.000
    O16      O        0.89190    0.20189    0.41086    1.000
    C22      C        0.94555    0.13543    0.23026    1.000
    C23      C        0.05431    0.34722    0.22747    1.000
    C24      C        0.02666    0.29190    0.18367    1.000
    C25      C        0.97410    0.18910    0.18501    1.000
    C26      C        0.02940    0.29200    0.11433    1.000
    C27      C        0.97350    0.18630    0.11600    1.000
    H10      H        0.04950    0.32730    0.09120    1.000
    C28      C        0.00160    0.23830    0.08040    1.000
    H11      H        0.95450    0.14990    0.09390    1.000
    H12      H        0.00180    0.23740    0.03370    1.000
    Nd5      Nd       0.65244    0.49227    0.25293    1.000
    O17      O        0.70727    0.45090    0.35402    1.000
    O18      O        0.71111    0.54033    0.15721    1.000
    N5       N        0.78130    0.49961    0.25834    1.000
    O19      O        0.58109    0.58530    0.20469    1.000
    O20      O        0.58914    0.39190    0.29811    1.000
    C29      C        0.76974    0.44555    0.36457    1.000
    C30      C        0.77253    0.55431    0.15278    1.000
    C31      C        0.81633    0.52666    0.20810    1.000
    C32      C        0.81499    0.47410    0.31090    1.000
    C33      C        0.88567    0.52940    0.20800    1.000
    C34      C        0.88400    0.47350    0.31370    1.000
    H13      H        0.90880    0.54950    0.17270    1.000
    C35      C        0.91960    0.50160    0.26170    1.000
    H14      H        0.90610    0.45450    0.35010    1.000
    H15      H        0.96630    0.50180    0.26260    1.000
    Nd6      Nd       0.15244    0.00773    0.74707    1.000
    O21      O        0.20727    0.04910    0.64598    1.000
    O22      O        0.21111    0.95967    0.84279    1.000
    N6       N        0.28130    0.00039    0.74166    1.000
    O23      O        0.08109    0.91470    0.79531    1.000
    O24      O        0.08914    0.10810    0.70189    1.000
    C36      C        0.26974    0.05445    0.63543    1.000
    C37      C        0.27253    0.94569    0.84722    1.000
    C38      C        0.31633    0.97334    0.79190    1.000
    C39      C        0.31499    0.02590    0.68910    1.000
    C40      C        0.38567    0.97060    0.79200    1.000
    C41      C        0.38400    0.02650    0.68630    1.000
    H16      H        0.40880    0.95050    0.82730    1.000
    C42      C        0.41960    0.99840    0.73830    1.000
    H17      H        0.40610    0.04550    0.64990    1.000
    H18      H        0.46630    0.99820    0.73740    1.000
    Nd7      Nd       0.84756    0.50773    0.75293    1.000
    O25      O        0.79273    0.54910    0.85402    1.000
    O26      O        0.78889    0.45967    0.65721    1.000
    N7       N        0.71870    0.50039    0.75834    1.000
    O27      O        0.91891    0.41470    0.70469    1.000
    O28      O        0.91086    0.60810    0.79811    1.000
    C43      C        0.73026    0.55445    0.86457    1.000
    C44      C        0.72747    0.44569    0.65278    1.000
    C45      C        0.68367    0.47334    0.70810    1.000
    C46      C        0.68501    0.52590    0.81090    1.000
    C47      C        0.61433    0.47060    0.70800    1.000
    C48      C        0.61600    0.52650    0.81370    1.000
    H19      H        0.59120    0.45050    0.67270    1.000
    C49      C        0.58040    0.49840    0.76170    1.000
    H20      H        0.59390    0.54550    0.85010    1.000
    H21      H        0.53370    0.49820    0.76260    1.000
    Nd8      Nd       0.34756    0.99227    0.24707    1.000
    O29      O        0.29273    0.95090    0.14598    1.000
    O30      O        0.28889    0.04033    0.34279    1.000
    N8       N        0.21870    0.99961    0.24166    1.000
    O31      O        0.41891    0.08530    0.29531    1.000
    O32      O        0.41086    0.89190    0.20189    1.000
    C50      C        0.23026    0.94555    0.13543    1.000
    C51      C        0.22747    0.05431    0.34722    1.000
    C52      C        0.18367    0.02666    0.29190    1.000
    C53      C        0.18501    0.97410    0.18910    1.000
    C54      C        0.11433    0.02940    0.29200    1.000
    C55      C        0.11600    0.97350    0.18630    1.000
    H22      H        0.09120    0.04950    0.32730    1.000
    C56      C        0.08040    0.00160    0.23830    1.000
    H23      H        0.09390    0.95450    0.14990    1.000
    H24      H        0.03370    0.00180    0.23740    1.000
    Nd9      Nd       0.25293    0.65244    0.49227    1.000
    O33      O        0.35402    0.70727    0.45090    1.000
    O34      O        0.15721    0.71111    0.54033    1.000
    N9       N        0.25834    0.78130    0.49961    1.000
    O35      O        0.20469    0.58109    0.58530    1.000
    O36      O        0.29811    0.58914    0.39190    1.000
    C57      C        0.36457    0.76974    0.44555    1.000
    C58      C        0.15278    0.77253    0.55431    1.000
    C59      C        0.20810    0.81633    0.52666    1.000
    C60      C        0.31090    0.81499    0.47410    1.000
    C61      C        0.20800    0.88567    0.52940    1.000
    C62      C        0.31370    0.88400    0.47350    1.000
    H25      H        0.17270    0.90880    0.54950    1.000
    C63      C        0.26170    0.91960    0.50160    1.000
    H26      H        0.35010    0.90610    0.45450    1.000
    H27      H        0.26260    0.96630    0.50180    1.000
    Nd10     Nd       0.74707    0.15244    0.00773    1.000
    O37      O        0.64598    0.20727    0.04910    1.000
    O38      O        0.84279    0.21111    0.95967    1.000
    N10      N        0.74166    0.28130    0.00039    1.000
    O39      O        0.79531    0.08109    0.91470    1.000
    O40      O        0.70189    0.08914    0.10810    1.000
    C64      C        0.63543    0.26974    0.05445    1.000
    C65      C        0.84722    0.27253    0.94569    1.000
    C66      C        0.79190    0.31633    0.97334    1.000
    C67      C        0.68910    0.31499    0.02590    1.000
    C68      C        0.79200    0.38567    0.97060    1.000
    C69      C        0.68630    0.38400    0.02650    1.000
    H28      H        0.82730    0.40880    0.95050    1.000
    C70      C        0.73830    0.41960    0.99840    1.000
    H29      H        0.64990    0.40610    0.04550    1.000
    H30      H        0.73740    0.46630    0.99820    1.000
    Nd11     Nd       0.75293    0.84756    0.50773    1.000
    O41      O        0.85402    0.79273    0.54910    1.000
    O42      O        0.65721    0.78889    0.45967    1.000
    N11      N        0.75834    0.71870    0.50039    1.000
    O43      O        0.70469    0.91891    0.41470    1.000
    O44      O        0.79811    0.91086    0.60810    1.000
    C71      C        0.86457    0.73026    0.55445    1.000
    C72      C        0.65278    0.72747    0.44569    1.000
    C73      C        0.70810    0.68367    0.47334    1.000
    C74      C        0.81090    0.68501    0.52590    1.000
    C75      C        0.70800    0.61433    0.47060    1.000
    C76      C        0.81370    0.61600    0.52650    1.000
    H31      H        0.67270    0.59120    0.45050    1.000
    C77      C        0.76170    0.58040    0.49840    1.000
    H32      H        0.85010    0.59390    0.54550    1.000
    H33      H        0.76260    0.53370    0.49820    1.000
    Nd12     Nd       0.24707    0.34756    0.99227    1.000
    O45      O        0.14598    0.29273    0.95090    1.000
    O46      O        0.34279    0.28889    0.04033    1.000
    N12      N        0.24166    0.21870    0.99961    1.000
    O47      O        0.29531    0.41891    0.08530    1.000
    O48      O        0.20189    0.41086    0.89190    1.000
    C78      C        0.13543    0.23026    0.94555    1.000
    C79      C        0.34722    0.22747    0.05431    1.000
    C80      C        0.29190    0.18367    0.02666    1.000
    C81      C        0.18910    0.18501    0.97410    1.000
    C82      C        0.29200    0.11433    0.02940    1.000
    C83      C        0.18630    0.11600    0.97350    1.000
    H34      H        0.32730    0.09120    0.04950    1.000
    C84      C        0.23830    0.08040    0.00160    1.000
    H35      H        0.14990    0.09390    0.95450    1.000
    H36      H        0.23740    0.03370    0.00180    1.000
    Nd13     Nd       0.50773    0.74707    0.34756    1.000
    O49      O        0.54910    0.64598    0.29273    1.000
    O50      O        0.45967    0.84279    0.28889    1.000
    N13      N        0.50039    0.74166    0.21870    1.000
    O51      O        0.41470    0.79531    0.41891    1.000
    O52      O        0.60810    0.70189    0.41086    1.000
    C85      C        0.55445    0.63543    0.23026    1.000
    C86      C        0.44569    0.84722    0.22747    1.000
    C87      C        0.47334    0.79190    0.18367    1.000
    C88      C        0.52590    0.68910    0.18501    1.000
    C89      C        0.47060    0.79200    0.11433    1.000
    C90      C        0.52650    0.68630    0.11600    1.000
    H37      H        0.45050    0.82730    0.09120    1.000
    C91      C        0.49840    0.73830    0.08040    1.000
    H38      H        0.54550    0.64990    0.09390    1.000
    H39      H        0.49820    0.73740    0.03370    1.000
    Nd14     Nd       0.99227    0.25293    0.84756    1.000
    O53      O        0.95090    0.35402    0.79273    1.000
    O54      O        0.04033    0.15721    0.78889    1.000
    N14      N        0.99961    0.25834    0.71870    1.000
    O55      O        0.08530    0.20469    0.91891    1.000
    O56      O        0.89190    0.29811    0.91086    1.000
    C92      C        0.94555    0.36457    0.73026    1.000
    C93      C        0.05431    0.15278    0.72747    1.000
    C94      C        0.02666    0.20810    0.68367    1.000
    C95      C        0.97410    0.31090    0.68501    1.000
    C96      C        0.02940    0.20800    0.61433    1.000
    C97      C        0.97350    0.31370    0.61600    1.000
    H40      H        0.04950    0.17270    0.59120    1.000
    C98      C        0.00160    0.26170    0.58040    1.000
    H41      H        0.95450    0.35010    0.59390    1.000
    H42      H        0.00180    0.26260    0.53370    1.000
    Nd15     Nd       0.49227    0.24707    0.15244    1.000
    O57      O        0.45090    0.14598    0.20727    1.000
    O58      O        0.54033    0.34279    0.21111    1.000
    N15      N        0.49961    0.24166    0.28130    1.000
    O59      O        0.58530    0.29531    0.08109    1.000
    O60      O        0.39190    0.20189    0.08914    1.000
    C99      C        0.44555    0.13543    0.26974    1.000
    C100     C        0.55431    0.34722    0.27253    1.000
    C101     C        0.52666    0.29190    0.31633    1.000
    C102     C        0.47410    0.18910    0.31499    1.000
    C103     C        0.52940    0.29200    0.38567    1.000
    C104     C        0.47350    0.18630    0.38400    1.000
    H43      H        0.54950    0.32730    0.40880    1.000
    C105     C        0.50160    0.23830    0.41960    1.000
    H44      H        0.45450    0.14990    0.40610    1.000
    H45      H        0.50180    0.23740    0.46630    1.000
    Nd16     Nd       0.00773    0.75293    0.65244    1.000
    O61      O        0.04910    0.85402    0.70727    1.000
    O62      O        0.95967    0.65721    0.71111    1.000
    N16      N        0.00039    0.75834    0.78130    1.000
    O63      O        0.91470    0.70469    0.58109    1.000
    O64      O        0.10810    0.79811    0.58914    1.000
    C106     C        0.05445    0.86457    0.76974    1.000
    C107     C        0.94569    0.65278    0.77253    1.000
    C108     C        0.97334    0.70810    0.81633    1.000
    C109     C        0.02590    0.81090    0.81499    1.000
    C110     C        0.97060    0.70800    0.88567    1.000
    C111     C        0.02650    0.81370    0.88400    1.000
    H46      H        0.95050    0.67270    0.90880    1.000
    C112     C        0.99840    0.76170    0.91960    1.000
    H47      H        0.04550    0.85010    0.90610    1.000
    H48      H        0.99820    0.76260    0.96630    1.000
    Nd17     Nd       0.34756    0.50773    0.74707    1.000
    O65      O        0.29273    0.54910    0.64598    1.000
    O66      O        0.28889    0.45967    0.84279    1.000
    N17      N        0.21870    0.50039    0.74166    1.000
    O67      O        0.41891    0.41470    0.79531    1.000
    O68      O        0.41086    0.60810    0.70189    1.000
    C113     C        0.23026    0.55445    0.63543    1.000
    C114     C        0.22747    0.44569    0.84722    1.000
    C115     C        0.18367    0.47334    0.79190    1.000
    C116     C        0.18501    0.52590    0.68910    1.000
    C117     C        0.11433    0.47060    0.79200    1.000
    C118     C        0.11600    0.52650    0.68630    1.000
    H49      H        0.09120    0.45050    0.82730    1.000
    C119     C        0.08040    0.49840    0.73830    1.000
    H50      H        0.09390    0.54550    0.64990    1.000
    H51      H        0.03370    0.49820    0.73740    1.000
    Nd18     Nd       0.84756    0.99227    0.25293    1.000
    O69      O        0.79273    0.95090    0.35402    1.000
    O70      O        0.78889    0.04033    0.15721    1.000
    N18      N        0.71870    0.99961    0.25834    1.000
    O71      O        0.91891    0.08530    0.20469    1.000
    O72      O        0.91086    0.89190    0.29811    1.000
    C120     C        0.73026    0.94555    0.36457    1.000
    C121     C        0.72747    0.05431    0.15278    1.000
    C122     C        0.68367    0.02666    0.20810    1.000
    C123     C        0.68501    0.97410    0.31090    1.000
    C124     C        0.61433    0.02940    0.20800    1.000
    C125     C        0.61600    0.97350    0.31370    1.000
    H52      H        0.59120    0.04950    0.17270    1.000
    C126     C        0.58040    0.00160    0.26170    1.000
    H53      H        0.59390    0.95450    0.35010    1.000
    H54      H        0.53370    0.00180    0.26260    1.000
    Nd19     Nd       0.15244    0.49227    0.24707    1.000
    O73      O        0.20727    0.45090    0.14598    1.000
    O74      O        0.21111    0.54033    0.34279    1.000
    N19      N        0.28130    0.49961    0.24166    1.000
    O75      O        0.08109    0.58530    0.29531    1.000
    O76      O        0.08914    0.39190    0.20189    1.000
    C127     C        0.26974    0.44555    0.13543    1.000
    C128     C        0.27253    0.55431    0.34722    1.000
    C129     C        0.31633    0.52666    0.29190    1.000
    C130     C        0.31499    0.47410    0.18910    1.000
    C131     C        0.38567    0.52940    0.29200    1.000
    C132     C        0.38400    0.47350    0.18630    1.000
    H55      H        0.40880    0.54950    0.32730    1.000
    C133     C        0.41960    0.50160    0.23830    1.000
    H56      H        0.40610    0.45450    0.14990    1.000
    H57      H        0.46630    0.50180    0.23740    1.000
    Nd20     Nd       0.65244    0.00773    0.75293    1.000
    O77      O        0.70727    0.04910    0.85402    1.000
    O78      O        0.71111    0.95967    0.65721    1.000
    N20      N        0.78130    0.00039    0.75834    1.000
    O79      O        0.58109    0.91470    0.70469    1.000
    O80      O        0.58914    0.10810    0.79811    1.000
    C134     C        0.76974    0.05445    0.86457    1.000
    C135     C        0.77253    0.94569    0.65278    1.000
    C136     C        0.81633    0.97334    0.70810    1.000
    C137     C        0.81499    0.02590    0.81090    1.000
    C138     C        0.88567    0.97060    0.70800    1.000
    C139     C        0.88400    0.02650    0.81370    1.000
    H58      H        0.90880    0.95050    0.67270    1.000
    C140     C        0.91960    0.99840    0.76170    1.000
    H59      H        0.90610    0.04550    0.85010    1.000
    H60      H        0.96630    0.99820    0.76260    1.000
    Nd21     Nd       0.74707    0.34756    0.50773    1.000
    O81      O        0.64598    0.29273    0.54910    1.000
    O82      O        0.84279    0.28889    0.45967    1.000
    N21      N        0.74166    0.21870    0.50039    1.000
    O83      O        0.79531    0.41891    0.41470    1.000
    O84      O        0.70189    0.41086    0.60810    1.000
    C141     C        0.63543    0.23026    0.55445    1.000
    C142     C        0.84722    0.22747    0.44569    1.000
    C143     C        0.79190    0.18367    0.47334    1.000
    C144     C        0.68910    0.18501    0.52590    1.000
    C145     C        0.79200    0.11433    0.47060    1.000
    C146     C        0.68630    0.11600    0.52650    1.000
    H61      H        0.82730    0.09120    0.45050    1.000
    C147     C        0.73830    0.08040    0.49840    1.000
    H62      H        0.64990    0.09390    0.54550    1.000
    H63      H        0.73740    0.03370    0.49820    1.000
    Nd22     Nd       0.25293    0.84756    0.99227    1.000
    O85      O        0.35402    0.79273    0.95090    1.000
    O86      O        0.15721    0.78889    0.04033    1.000
    N22      N        0.25834    0.71870    0.99961    1.000
    O87      O        0.20469    0.91891    0.08530    1.000
    O88      O        0.29811    0.91086    0.89190    1.000
    C148     C        0.36457    0.73026    0.94555    1.000
    C149     C        0.15278    0.72747    0.05431    1.000
    C150     C        0.20810    0.68367    0.02666    1.000
    C151     C        0.31090    0.68501    0.97410    1.000
    C152     C        0.20800    0.61433    0.02940    1.000
    C153     C        0.31370    0.61600    0.97350    1.000
    H64      H        0.17270    0.59120    0.04950    1.000
    C154     C        0.26170    0.58040    0.00160    1.000
    H65      H        0.35010    0.59390    0.95450    1.000
    H66      H        0.26260    0.53370    0.00180    1.000
    Nd23     Nd       0.24707    0.15244    0.49227    1.000
    O89      O        0.14598    0.20727    0.45090    1.000
    O90      O        0.34279    0.21111    0.54033    1.000
    N23      N        0.24166    0.28130    0.49961    1.000
    O91      O        0.29531    0.08109    0.58530    1.000
    O92      O        0.20189    0.08914    0.39190    1.000
    C155     C        0.13543    0.26974    0.44555    1.000
    C156     C        0.34722    0.27253    0.55431    1.000
    C157     C        0.29190    0.31633    0.52666    1.000
    C158     C        0.18910    0.31499    0.47410    1.000
    C159     C        0.29200    0.38567    0.52940    1.000
    C160     C        0.18630    0.38400    0.47350    1.000
    H67      H        0.32730    0.40880    0.54950    1.000
    C161     C        0.23830    0.41960    0.50160    1.000
    H68      H        0.14990    0.40610    0.45450    1.000
    H69      H        0.23740    0.46630    0.50180    1.000
    Nd24     Nd       0.75293    0.65244    0.00773    1.000
    O93      O        0.85402    0.70727    0.04910    1.000
    O94      O        0.65721    0.71111    0.95967    1.000
    N24      N        0.75834    0.78130    0.00039    1.000
    O95      O        0.70469    0.58109    0.91470    1.000
    O96      O        0.79811    0.58914    0.10810    1.000
    C162     C        0.86457    0.76974    0.05445    1.000
    C163     C        0.65278    0.77253    0.94569    1.000
    C164     C        0.70810    0.81633    0.97334    1.000
    C165     C        0.81090    0.81499    0.02590    1.000
    C166     C        0.70800    0.88567    0.97060    1.000
    C167     C        0.81370    0.88400    0.02650    1.000
    H70      H        0.67270    0.90880    0.95050    1.000
    C168     C        0.76170    0.91960    0.99840    1.000
    H71      H        0.85010    0.90610    0.04550    1.000
    H72      H        0.76260    0.96630    0.99820    1.000
