# CIF file generated by openbabel 3.1.0, see https://openbabel.org
data_I
_chemical_name_common 'CUNWEO_clean'
_cell_length_a 8.393
_cell_length_b 18.7421
_cell_length_c 22.2351
_cell_angle_alpha 90
_cell_angle_beta 90
_cell_angle_gamma 94.031
_space_group_name_H-M_alt 'P 1'
_space_group_name_Hall 'P 1'
loop_
    _symmetry_equiv_pos_as_xyz
    x,y,z
loop_
    _atom_site_label
    _atom_site_type_symbol
    _atom_site_fract_x
    _atom_site_fract_y
    _atom_site_fract_z
    _atom_site_occupancy
    Cd1      Cd       0.68424    0.01288    0.44304    1.000
    Cd2      Cd       0.31576    0.48712    0.94304    1.000
    Cd3      Cd       0.31576    0.98712    0.55696    1.000
    Cd4      Cd       0.68424    0.51288    0.05696    1.000
    H1       H        0.05800    0.16720    0.45330    1.000
    H2       H        0.99920    0.25340    0.38020    1.000
    H3       H        0.48730    0.14280    0.37420    1.000
    H4       H        0.41530    0.50510    0.15890    1.000
    H5       H        0.30550    0.43380    0.23600    1.000
    H6       H        0.54960    0.27220    0.16780    1.000
    H7       H        0.65550    0.35150    0.09640    1.000
    H8       H        0.13200    0.02600    0.30580    1.000
    H9       H        0.29370    0.06880    0.22420    1.000
    H10      H        0.79790    0.16480    0.26490    1.000
    H11      H        0.31760    0.31910    0.95990    1.000
    H12      H        0.25210    0.22670    0.02670    1.000
    H13      H        0.03710    0.36970    0.13140    1.000
    H14      H        0.10960    0.45470    0.06140    1.000
    H15      H        0.94200    0.33280    0.95330    1.000
    H16      H        0.00080    0.24660    0.88020    1.000
    H17      H        0.51270    0.35720    0.87420    1.000
    H18      H        0.58470    0.99490    0.65890    1.000
    H19      H        0.69450    0.06620    0.73600    1.000
    H20      H        0.45040    0.22780    0.66780    1.000
    H21      H        0.34450    0.14850    0.59640    1.000
    H22      H        0.86800    0.47400    0.80580    1.000
    H23      H        0.70630    0.43120    0.72420    1.000
    H24      H        0.20210    0.33520    0.76490    1.000
    H25      H        0.68240    0.18090    0.45990    1.000
    H26      H        0.74790    0.27330    0.52670    1.000
    H27      H        0.96290    0.13030    0.63140    1.000
    H28      H        0.89040    0.04530    0.56140    1.000
    H29      H        0.94200    0.83280    0.54670    1.000
    H30      H        0.00080    0.74660    0.61980    1.000
    H31      H        0.51270    0.85720    0.62580    1.000
    H32      H        0.58470    0.49490    0.84110    1.000
    H33      H        0.69450    0.56620    0.76400    1.000
    H34      H        0.45040    0.72780    0.83220    1.000
    H35      H        0.34450    0.64850    0.90360    1.000
    H36      H        0.86800    0.97400    0.69420    1.000
    H37      H        0.70630    0.93120    0.77580    1.000
    H38      H        0.20210    0.83520    0.73510    1.000
    H39      H        0.68240    0.68090    0.04010    1.000
    H40      H        0.74790    0.77330    0.97330    1.000
    H41      H        0.96290    0.63030    0.86860    1.000
    H42      H        0.89040    0.54530    0.93860    1.000
    H43      H        0.05800    0.66720    0.04670    1.000
    H44      H        0.99920    0.75340    0.11980    1.000
    H45      H        0.48730    0.64280    0.12580    1.000
    H46      H        0.41530    0.00510    0.34110    1.000
    H47      H        0.30550    0.93380    0.26400    1.000
    H48      H        0.54960    0.77220    0.33220    1.000
    H49      H        0.65550    0.85150    0.40360    1.000
    H50      H        0.13200    0.52600    0.19420    1.000
    H51      H        0.29370    0.56880    0.27580    1.000
    H52      H        0.79790    0.66480    0.23510    1.000
    H53      H        0.31760    0.81910    0.54010    1.000
    H54      H        0.25210    0.72670    0.47330    1.000
    H55      H        0.03710    0.86970    0.36860    1.000
    H56      H        0.10960    0.95470    0.43860    1.000
    C1       C        0.30640    0.09020    0.46580    1.000
    C2       C        0.27540    0.14700    0.41990    1.000
    C3       C        0.13290    0.17980    0.42240    1.000
    C4       C        0.09810    0.23170    0.37960    1.000
    C5       C        0.21100    0.24970    0.33730    1.000
    C6       C        0.35390    0.21800    0.33600    1.000
    C7       C        0.38960    0.16530    0.37620    1.000
    C8       C        0.45140    0.24830    0.28570    1.000
    C9       C        0.20990    0.30180    0.28650    1.000
    C10      C        0.44380    0.45700    0.16160    1.000
    C11      C        0.37640    0.41530    0.20760    1.000
    C12      C        0.41770    0.34470    0.21010    1.000
    C13      C        0.52130    0.32040    0.16760    1.000
    C14      C        0.58210    0.36790    0.12490    1.000
    C15      C        0.85680    0.06400    0.34670    1.000
    C16      C        0.95380    0.09140    0.29340    1.000
    C17      C        0.09770    0.06330    0.28110    1.000
    C18      C        0.19520    0.08850    0.23310    1.000
    C19      C        0.13900    0.14410    0.19930    1.000
    C20      C        0.99410    0.17120    0.21180    1.000
    C21      C        0.89840    0.14610    0.25750    1.000
    C22      C        0.21630    0.18330    0.14820    1.000
    C23      C        0.97040    0.22980    0.16750    1.000
    C24      C        0.26200    0.32930    0.99570    1.000
    C25      C        0.22370    0.27380    0.03520    1.000
    C26      C        0.14250    0.28890    0.08790    1.000
    C27      C        0.09700    0.35780    0.09700    1.000
    C28      C        0.14130    0.40760    0.05480    1.000
    C29      C        0.69360    0.40980    0.96580    1.000
    C30      C        0.72460    0.35300    0.91990    1.000
    C31      C        0.86710    0.32020    0.92240    1.000
    C32      C        0.90190    0.26830    0.87960    1.000
    C33      C        0.78900    0.25030    0.83730    1.000
    C34      C        0.64610    0.28200    0.83600    1.000
    C35      C        0.61040    0.33470    0.87620    1.000
    C36      C        0.54860    0.25170    0.78570    1.000
    C37      C        0.79010    0.19820    0.78650    1.000
    C38      C        0.55620    0.04300    0.66160    1.000
    C39      C        0.62360    0.08470    0.70760    1.000
    C40      C        0.58230    0.15530    0.71010    1.000
    C41      C        0.47870    0.17960    0.66760    1.000
    C42      C        0.41790    0.13210    0.62490    1.000
    C43      C        0.14320    0.43600    0.84670    1.000
    C44      C        0.04620    0.40860    0.79340    1.000
    C45      C        0.90230    0.43670    0.78110    1.000
    C46      C        0.80480    0.41150    0.73310    1.000
    C47      C        0.86100    0.35590    0.69930    1.000
    C48      C        0.00590    0.32880    0.71180    1.000
    C49      C        0.10160    0.35390    0.75750    1.000
    C50      C        0.78370    0.31670    0.64820    1.000
    C51      C        0.02960    0.27020    0.66750    1.000
    C52      C        0.73800    0.17070    0.49570    1.000
    C53      C        0.77630    0.22620    0.53520    1.000
    C54      C        0.85750    0.21110    0.58790    1.000
    C55      C        0.90300    0.14220    0.59700    1.000
    C56      C        0.85870    0.09240    0.55480    1.000
    C57      C        0.69360    0.90980    0.53420    1.000
    C58      C        0.72460    0.85300    0.58010    1.000
    C59      C        0.86710    0.82020    0.57760    1.000
    C60      C        0.90190    0.76830    0.62040    1.000
    C61      C        0.78900    0.75030    0.66270    1.000
    C62      C        0.64610    0.78200    0.66400    1.000
    C63      C        0.61040    0.83470    0.62380    1.000
    C64      C        0.54860    0.75170    0.71430    1.000
    C65      C        0.79010    0.69820    0.71350    1.000
    C66      C        0.55620    0.54300    0.83840    1.000
    C67      C        0.62360    0.58470    0.79240    1.000
    C68      C        0.58230    0.65530    0.78990    1.000
    C69      C        0.47870    0.67960    0.83240    1.000
    C70      C        0.41790    0.63210    0.87510    1.000
    C71      C        0.14320    0.93600    0.65330    1.000
    C72      C        0.04620    0.90860    0.70660    1.000
    C73      C        0.90230    0.93670    0.71890    1.000
    C74      C        0.80480    0.91150    0.76690    1.000
    C75      C        0.86100    0.85590    0.80070    1.000
    C76      C        0.00590    0.82880    0.78820    1.000
    C77      C        0.10160    0.85390    0.74250    1.000
    C78      C        0.78370    0.81670    0.85180    1.000
    C79      C        0.02960    0.77020    0.83250    1.000
    C80      C        0.73800    0.67070    0.00430    1.000
    C81      C        0.77630    0.72620    0.96480    1.000
    C82      C        0.85750    0.71110    0.91210    1.000
    C83      C        0.90300    0.64220    0.90300    1.000
    C84      C        0.85870    0.59240    0.94520    1.000
    C85      C        0.30640    0.59020    0.03420    1.000
    C86      C        0.27540    0.64700    0.08010    1.000
    C87      C        0.13290    0.67980    0.07760    1.000
    C88      C        0.09810    0.73170    0.12040    1.000
    C89      C        0.21100    0.74970    0.16270    1.000
    C90      C        0.35390    0.71800    0.16400    1.000
    C91      C        0.38960    0.66530    0.12380    1.000
    C92      C        0.45140    0.74830    0.21430    1.000
    C93      C        0.20990    0.80180    0.21350    1.000
    C94      C        0.44380    0.95700    0.33840    1.000
    C95      C        0.37640    0.91530    0.29240    1.000
    C96      C        0.41770    0.84470    0.28990    1.000
    C97      C        0.52130    0.82040    0.33240    1.000
    C98      C        0.58210    0.86790    0.37510    1.000
    C99      C        0.85680    0.56400    0.15330    1.000
    C100     C        0.95380    0.59140    0.20660    1.000
    C101     C        0.09770    0.56330    0.21890    1.000
    C102     C        0.19520    0.58850    0.26690    1.000
    C103     C        0.13900    0.64410    0.30070    1.000
    C104     C        0.99410    0.67120    0.28820    1.000
    C105     C        0.89840    0.64610    0.24250    1.000
    C106     C        0.21630    0.68330    0.35180    1.000
    C107     C        0.97040    0.72980    0.33250    1.000
    C108     C        0.26200    0.82930    0.50430    1.000
    C109     C        0.22370    0.77380    0.46480    1.000
    C110     C        0.14250    0.78890    0.41210    1.000
    C111     C        0.09700    0.85780    0.40300    1.000
    C112     C        0.14130    0.90760    0.44520    1.000
    N1       N        0.54450    0.43510    0.12130    1.000
    N2       N        0.35910    0.29910    0.25720    1.000
    N3       N        0.11020    0.23560    0.13180    1.000
    N4       N        0.22460    0.39710    0.00530    1.000
    N5       N        0.45550    0.06490    0.62130    1.000
    N6       N        0.64090    0.20090    0.75720    1.000
    N7       N        0.88980    0.26440    0.63180    1.000
    N8       N        0.77540    0.10290    0.50530    1.000
    N9       N        0.45550    0.56490    0.87870    1.000
    N10      N        0.64090    0.70090    0.74280    1.000
    N11      N        0.88980    0.76440    0.86820    1.000
    N12      N        0.77540    0.60290    0.99470    1.000
    N13      N        0.54450    0.93510    0.37870    1.000
    N14      N        0.35910    0.79910    0.24280    1.000
    N15      N        0.11020    0.73560    0.36820    1.000
    N16      N        0.22460    0.89710    0.49470    1.000
    O1       O        0.42940    0.05620    0.45985    1.000
    O2       O        0.20670    0.07850    0.50670    1.000
    O3       O        0.10630    0.33880    0.27020    1.000
    O4       O        0.58490    0.23580    0.27130    1.000
    O5       O        0.72810    0.09160    0.35922    1.000
    O6       O        0.90970    0.01370    0.37690    1.000
    O7       O        0.85600    0.26380    0.16050    1.000
    O8       O        0.34270    0.17460    0.12400    1.000
    O9       O        0.57060    0.44380    0.95985    1.000
    O10      O        0.79330    0.42150    0.00670    1.000
    O11      O        0.89370    0.16120    0.77020    1.000
    O12      O        0.41510    0.26420    0.77130    1.000
    O13      O        0.27190    0.40840    0.85922    1.000
    O14      O        0.09030    0.48630    0.87690    1.000
    O15      O        0.14400    0.23620    0.66050    1.000
    O16      O        0.65730    0.32540    0.62400    1.000
    O17      O        0.57060    0.94380    0.54015    1.000
    O18      O        0.79330    0.92150    0.49330    1.000
    O19      O        0.89370    0.66120    0.72980    1.000
    O20      O        0.41510    0.76420    0.72870    1.000
    O21      O        0.27190    0.90840    0.64078    1.000
    O22      O        0.09030    0.98630    0.62310    1.000
    O23      O        0.14400    0.73620    0.83950    1.000
    O24      O        0.65730    0.82540    0.87600    1.000
    O25      O        0.42940    0.55620    0.04015    1.000
    O26      O        0.20670    0.57850    0.99330    1.000
    O27      O        0.10630    0.83880    0.22980    1.000
    O28      O        0.58490    0.73580    0.22870    1.000
    O29      O        0.72810    0.59160    0.14078    1.000
    O30      O        0.90970    0.51370    0.12310    1.000
    O31      O        0.85600    0.76380    0.33950    1.000
    O32      O        0.34270    0.67460    0.37600    1.000
