# CIF file generated by openbabel 3.1.0, see https://openbabel.org
data_I
_chemical_name_common 'image0'
_cell_length_a 34.622
_cell_length_b 10.432
_cell_length_c 18.032
_cell_angle_alpha 90
_cell_angle_beta 100.95
_cell_angle_gamma 90
_space_group_name_H-M_alt 'P 1'
_space_group_name_Hall 'P 1'
loop_
    _symmetry_equiv_pos_as_xyz
    x,y,z
loop_
    _atom_site_label
    _atom_site_type_symbol
    _atom_site_fract_x
    _atom_site_fract_y
    _atom_site_fract_z
    _atom_site_occupancy
    Cd1      Cd       0.14854    0.32777    0.46249    1.000
    O1       O        0.15555    0.20590    0.56380    1.000
    O2       O        0.21347    0.12310    0.55390    1.000
    O3       O        0.14966    0.80800    0.86920    1.000
    O4       O        0.21320    0.77160    0.88380    1.000
    O5       O        0.17244    0.52080    0.41820    1.000
    O6       O        0.20975    0.42730    0.51610    1.000
    C1       C        0.18393    0.05410    0.65520    1.000
    C2       C        0.15240    0.05920    0.69220    1.000
    C3       C        0.15320    0.98410    0.75560    1.000
    H1       H        0.13130    0.98740    0.78100    1.000
    C4       C        0.18326    0.90340    0.78260    1.000
    C5       C        0.21550    0.90090    0.74560    1.000
    C6       C        0.21488    0.97410    0.68240    1.000
    H2       H        0.23650    0.96860    0.65610    1.000
    C7       C        0.18400    0.13360    0.58590    1.000
    C8       C        0.18240    0.82350    0.85100    1.000
    C9       C        0.22701    0.63960    0.48300    1.000
    C10      C        0.22117    0.74480    0.43420    1.000
    H3       H        0.20170    0.74100    0.38860    1.000
    C11      C        0.25681    0.64750    0.54910    1.000
    H4       H        0.26110    0.57550    0.58280    1.000
    C12      C        0.20192    0.52120    0.47090    1.000
    C13      C        0.03680    0.46190    0.48980    1.000
    C14      C        0.07830    0.41800    0.48280    1.000
    N1       N        0.12070    0.14900    0.66970    1.000
    H5       H        0.11450    0.21080    0.62360    1.000
    H6       H        0.09630    0.16720    0.69220    1.000
    H7       H        0.23690    0.84150    0.76400    1.000
    N2       N        0.24670    0.81190    0.76320    1.000
    H8       H        0.24750    0.75610    0.80150    1.000
    H9       H        0.26650    0.81400    0.73730    1.000
    H10      H        0.13070    0.11530    0.67610    1.000
    C15      C        0.00360    0.38940    0.45940    1.000
    H11      H        0.00630    0.31150    0.43250    1.000
    C16      C        0.03330    0.57290    0.52870    1.000
    H12      H        0.05620    0.62270    0.54930    1.000
    O7       O        0.08060    0.32540    0.43990    1.000
    O8       O        0.10740    0.47810    0.51590    1.000
    N3       N        0.00060    0.28400    0.40400    1.000
    H13      H        0.97790    0.25370    0.38380    1.000
    H14      H        0.02150    0.25210    0.39200    1.000
    C17      C        0.00480    0.43690    0.43120    1.000
    H15      H        0.00780    0.39320    0.38580    1.000
    C18      C        0.03130    0.52760    0.55380    1.000
    H16      H        0.05410    0.54790    0.59110    1.000
    O9       O        0.08220    0.36710    0.41940    1.000
    O10      O        0.10640    0.43910    0.53710    1.000
    N4       N        0.00150    0.34900    0.36650    1.000
    H17      H        0.97870    0.32490    0.34270    1.000
    H18      H        0.02230    0.32080    0.35250    1.000
    N5       N        0.19410    0.74000    0.36340    1.000
    H19      H        0.18030    0.66790    0.34980    1.000
    H20      H        0.19080    0.80870    0.33260    1.000
    Cd2      Cd       0.64854    0.82777    0.46249    1.000
    O11      O        0.65555    0.70590    0.56380    1.000
    O12      O        0.71347    0.62310    0.55390    1.000
    O13      O        0.64966    0.30800    0.86920    1.000
    O14      O        0.71320    0.27160    0.88380    1.000
    O15      O        0.67244    0.02080    0.41820    1.000
    O16      O        0.70975    0.92730    0.51610    1.000
    C19      C        0.68393    0.55410    0.65520    1.000
    C20      C        0.65240    0.55920    0.69220    1.000
    C21      C        0.65320    0.48410    0.75560    1.000
    H21      H        0.63130    0.48740    0.78100    1.000
    C22      C        0.68326    0.40340    0.78260    1.000
    C23      C        0.71550    0.40090    0.74560    1.000
    C24      C        0.71488    0.47410    0.68240    1.000
    H22      H        0.73650    0.46860    0.65610    1.000
    C25      C        0.68400    0.63360    0.58590    1.000
    C26      C        0.68240    0.32350    0.85100    1.000
    C27      C        0.72701    0.13960    0.48300    1.000
    C28      C        0.72117    0.24480    0.43420    1.000
    H23      H        0.70170    0.24100    0.38860    1.000
    C29      C        0.75681    0.14750    0.54910    1.000
    H24      H        0.76110    0.07550    0.58280    1.000
    C30      C        0.70192    0.02120    0.47090    1.000
    C31      C        0.53680    0.96190    0.48980    1.000
    C32      C        0.57830    0.91800    0.48280    1.000
    N6       N        0.62070    0.64900    0.66970    1.000
    H25      H        0.61450    0.71080    0.62360    1.000
    H26      H        0.59630    0.66720    0.69220    1.000
    H27      H        0.73690    0.34150    0.76400    1.000
    N7       N        0.74670    0.31190    0.76320    1.000
    H28      H        0.74750    0.25610    0.80150    1.000
    H29      H        0.76650    0.31400    0.73730    1.000
    H30      H        0.63070    0.61530    0.67610    1.000
    C33      C        0.50360    0.88940    0.45940    1.000
    H31      H        0.50630    0.81150    0.43250    1.000
    C34      C        0.53330    0.07290    0.52870    1.000
    H32      H        0.55620    0.12270    0.54930    1.000
    O17      O        0.58060    0.82540    0.43990    1.000
    O18      O        0.60740    0.97810    0.51590    1.000
    N8       N        0.50060    0.78400    0.40400    1.000
    H33      H        0.47790    0.75370    0.38380    1.000
    H34      H        0.52150    0.75210    0.39200    1.000
    C35      C        0.50480    0.93690    0.43120    1.000
    H35      H        0.50780    0.89320    0.38580    1.000
    C36      C        0.53130    0.02760    0.55380    1.000
    H36      H        0.55410    0.04790    0.59110    1.000
    O19      O        0.58220    0.86710    0.41940    1.000
    O20      O        0.60640    0.93910    0.53710    1.000
    N9       N        0.50150    0.84900    0.36650    1.000
    H37      H        0.47870    0.82490    0.34270    1.000
    H38      H        0.52230    0.82080    0.35250    1.000
    N10      N        0.69410    0.24000    0.36340    1.000
    H39      H        0.68030    0.16790    0.34980    1.000
    H40      H        0.69080    0.30870    0.33260    1.000
    Cd3      Cd       0.85146    0.32777    0.03751    1.000
    O21      O        0.84445    0.20590    0.93620    1.000
    O22      O        0.78653    0.12310    0.94610    1.000
    O23      O        0.85034    0.80800    0.63080    1.000
    O24      O        0.78680    0.77160    0.61620    1.000
    O25      O        0.82756    0.52080    0.08180    1.000
    O26      O        0.79025    0.42730    0.98390    1.000
    C37      C        0.81607    0.05410    0.84480    1.000
    C38      C        0.84760    0.05920    0.80780    1.000
    C39      C        0.84680    0.98410    0.74440    1.000
    H41      H        0.86870    0.98740    0.71900    1.000
    C40      C        0.81674    0.90340    0.71740    1.000
    C41      C        0.78450    0.90090    0.75440    1.000
    C42      C        0.78512    0.97410    0.81760    1.000
    H42      H        0.76350    0.96860    0.84390    1.000
    C43      C        0.81600    0.13360    0.91410    1.000
    C44      C        0.81760    0.82350    0.64900    1.000
    C45      C        0.77299    0.63960    0.01700    1.000
    C46      C        0.77883    0.74480    0.06580    1.000
    H43      H        0.79830    0.74100    0.11140    1.000
    C47      C        0.74319    0.64750    0.95090    1.000
    H44      H        0.73890    0.57550    0.91720    1.000
    C48      C        0.79808    0.52120    0.02910    1.000
    C49      C        0.96320    0.46190    0.01020    1.000
    C50      C        0.92170    0.41800    0.01720    1.000
    N11      N        0.87930    0.14900    0.83030    1.000
    H45      H        0.88550    0.21080    0.87640    1.000
    H46      H        0.90370    0.16720    0.80780    1.000
    H47      H        0.76310    0.84150    0.73600    1.000
    N12      N        0.75330    0.81190    0.73680    1.000
    H48      H        0.75250    0.75610    0.69850    1.000
    H49      H        0.73350    0.81400    0.76270    1.000
    H50      H        0.86930    0.11530    0.82390    1.000
    C51      C        0.99640    0.38940    0.04060    1.000
    H51      H        0.99370    0.31150    0.06750    1.000
    C52      C        0.96670    0.57290    0.97130    1.000
    H52      H        0.94380    0.62270    0.95070    1.000
    O27      O        0.91940    0.32540    0.06010    1.000
    O28      O        0.89260    0.47810    0.98410    1.000
    N13      N        0.99940    0.28400    0.09600    1.000
    H53      H        0.02210    0.25370    0.11620    1.000
    H54      H        0.97850    0.25210    0.10800    1.000
    C53      C        0.99520    0.43690    0.06880    1.000
    H55      H        0.99220    0.39320    0.11420    1.000
    C54      C        0.96870    0.52760    0.94620    1.000
    H56      H        0.94590    0.54790    0.90890    1.000
    O29      O        0.91780    0.36710    0.08060    1.000
    O30      O        0.89360    0.43910    0.96290    1.000
    N14      N        0.99850    0.34900    0.13350    1.000
    H57      H        0.02130    0.32490    0.15730    1.000
    H58      H        0.97770    0.32080    0.14750    1.000
    N15      N        0.80590    0.74000    0.13660    1.000
    H59      H        0.81970    0.66790    0.15020    1.000
    H60      H        0.80920    0.80870    0.16740    1.000
    Cd4      Cd       0.35146    0.82777    0.03751    1.000
    O31      O        0.34445    0.70590    0.93620    1.000
    O32      O        0.28653    0.62310    0.94610    1.000
    O33      O        0.35034    0.30800    0.63080    1.000
    O34      O        0.28680    0.27160    0.61620    1.000
    O35      O        0.32756    0.02080    0.08180    1.000
    O36      O        0.29025    0.92730    0.98390    1.000
    C55      C        0.31607    0.55410    0.84480    1.000
    C56      C        0.34760    0.55920    0.80780    1.000
    C57      C        0.34680    0.48410    0.74440    1.000
    H61      H        0.36870    0.48740    0.71900    1.000
    C58      C        0.31674    0.40340    0.71740    1.000
    C59      C        0.28450    0.40090    0.75440    1.000
    C60      C        0.28512    0.47410    0.81760    1.000
    H62      H        0.26350    0.46860    0.84390    1.000
    C61      C        0.31600    0.63360    0.91410    1.000
    C62      C        0.31760    0.32350    0.64900    1.000
    C63      C        0.27299    0.13960    0.01700    1.000
    C64      C        0.27883    0.24480    0.06580    1.000
    H63      H        0.29830    0.24100    0.11140    1.000
    C65      C        0.24319    0.14750    0.95090    1.000
    H64      H        0.23890    0.07550    0.91720    1.000
    C66      C        0.29808    0.02120    0.02910    1.000
    C67      C        0.46320    0.96190    0.01020    1.000
    C68      C        0.42170    0.91800    0.01720    1.000
    N16      N        0.37930    0.64900    0.83030    1.000
    H65      H        0.38550    0.71080    0.87640    1.000
    H66      H        0.40370    0.66720    0.80780    1.000
    H67      H        0.26310    0.34150    0.73600    1.000
    N17      N        0.25330    0.31190    0.73680    1.000
    H68      H        0.25250    0.25610    0.69850    1.000
    H69      H        0.23350    0.31400    0.76270    1.000
    H70      H        0.36930    0.61530    0.82390    1.000
    C69      C        0.49640    0.88940    0.04060    1.000
    H71      H        0.49370    0.81150    0.06750    1.000
    C70      C        0.46670    0.07290    0.97130    1.000
    H72      H        0.44380    0.12270    0.95070    1.000
    O37      O        0.41940    0.82540    0.06010    1.000
    O38      O        0.39260    0.97810    0.98410    1.000
    N18      N        0.49940    0.78400    0.09600    1.000
    H73      H        0.52210    0.75370    0.11620    1.000
    H74      H        0.47850    0.75210    0.10800    1.000
    C71      C        0.49520    0.93690    0.06880    1.000
    H75      H        0.49220    0.89320    0.11420    1.000
    C72      C        0.46870    0.02760    0.94620    1.000
    H76      H        0.44590    0.04790    0.90890    1.000
    O39      O        0.41780    0.86710    0.08060    1.000
    O40      O        0.39360    0.93910    0.96290    1.000
    N19      N        0.49850    0.84900    0.13350    1.000
    H77      H        0.52130    0.82490    0.15730    1.000
    H78      H        0.47770    0.82080    0.14750    1.000
    N20      N        0.30590    0.24000    0.13660    1.000
    H79      H        0.31970    0.16790    0.15020    1.000
    H80      H        0.30920    0.30870    0.16740    1.000
    Cd5      Cd       0.85146    0.67223    0.53751    1.000
    O41      O        0.84445    0.79410    0.43620    1.000
    O42      O        0.78653    0.87690    0.44610    1.000
    O43      O        0.85034    0.19200    0.13080    1.000
    O44      O        0.78680    0.22840    0.11620    1.000
    O45      O        0.82756    0.47920    0.58180    1.000
    O46      O        0.79025    0.57270    0.48390    1.000
    C73      C        0.81607    0.94590    0.34480    1.000
    C74      C        0.84760    0.94080    0.30780    1.000
    C75      C        0.84680    0.01590    0.24440    1.000
    H81      H        0.86870    0.01260    0.21900    1.000
    C76      C        0.81674    0.09660    0.21740    1.000
    C77      C        0.78450    0.09910    0.25440    1.000
    C78      C        0.78512    0.02590    0.31760    1.000
    H82      H        0.76350    0.03140    0.34390    1.000
    C79      C        0.81600    0.86640    0.41410    1.000
    C80      C        0.81760    0.17650    0.14900    1.000
    C81      C        0.77299    0.36040    0.51700    1.000
    C82      C        0.77883    0.25520    0.56580    1.000
    H83      H        0.79830    0.25900    0.61140    1.000
    C83      C        0.74319    0.35250    0.45090    1.000
    H84      H        0.73890    0.42450    0.41720    1.000
    C84      C        0.79808    0.47880    0.52910    1.000
    C85      C        0.96320    0.53810    0.51020    1.000
    C86      C        0.92170    0.58200    0.51720    1.000
    N21      N        0.87930    0.85100    0.33030    1.000
    H85      H        0.88550    0.78920    0.37640    1.000
    H86      H        0.90370    0.83280    0.30780    1.000
    H87      H        0.76310    0.15850    0.23600    1.000
    N22      N        0.75330    0.18810    0.23680    1.000
    H88      H        0.75250    0.24390    0.19850    1.000
    H89      H        0.73350    0.18600    0.26270    1.000
    H90      H        0.86930    0.88470    0.32390    1.000
    C87      C        0.99640    0.61060    0.54060    1.000
    H91      H        0.99370    0.68850    0.56750    1.000
    C88      C        0.96670    0.42710    0.47130    1.000
    H92      H        0.94380    0.37730    0.45070    1.000
    O47      O        0.91940    0.67460    0.56010    1.000
    O48      O        0.89260    0.52190    0.48410    1.000
    N23      N        0.99940    0.71600    0.59600    1.000
    H93      H        0.02210    0.74630    0.61620    1.000
    H94      H        0.97850    0.74790    0.60800    1.000
    C89      C        0.99520    0.56310    0.56880    1.000
    H95      H        0.99220    0.60680    0.61420    1.000
    C90      C        0.96870    0.47240    0.44620    1.000
    H96      H        0.94590    0.45210    0.40890    1.000
    O49      O        0.91780    0.63290    0.58060    1.000
    O50      O        0.89360    0.56090    0.46290    1.000
    N24      N        0.99850    0.65100    0.63350    1.000
    H97      H        0.02130    0.67510    0.65730    1.000
    H98      H        0.97770    0.67920    0.64750    1.000
    N25      N        0.80590    0.26000    0.63660    1.000
    H99      H        0.81970    0.33210    0.65020    1.000
    H100     H        0.80920    0.19130    0.66740    1.000
    Cd6      Cd       0.35146    0.17223    0.53751    1.000
    O51      O        0.34445    0.29410    0.43620    1.000
    O52      O        0.28653    0.37690    0.44610    1.000
    O53      O        0.35034    0.69200    0.13080    1.000
    O54      O        0.28680    0.72840    0.11620    1.000
    O55      O        0.32756    0.97920    0.58180    1.000
    O56      O        0.29025    0.07270    0.48390    1.000
    C91      C        0.31607    0.44590    0.34480    1.000
    C92      C        0.34760    0.44080    0.30780    1.000
    C93      C        0.34680    0.51590    0.24440    1.000
    H101     H        0.36870    0.51260    0.21900    1.000
    C94      C        0.31674    0.59660    0.21740    1.000
    C95      C        0.28450    0.59910    0.25440    1.000
    C96      C        0.28512    0.52590    0.31760    1.000
    H102     H        0.26350    0.53140    0.34390    1.000
    C97      C        0.31600    0.36640    0.41410    1.000
    C98      C        0.31760    0.67650    0.14900    1.000
    C99      C        0.27299    0.86040    0.51700    1.000
    C100     C        0.27883    0.75520    0.56580    1.000
    H103     H        0.29830    0.75900    0.61140    1.000
    C101     C        0.24319    0.85250    0.45090    1.000
    H104     H        0.23890    0.92450    0.41720    1.000
    C102     C        0.29808    0.97880    0.52910    1.000
    C103     C        0.46320    0.03810    0.51020    1.000
    C104     C        0.42170    0.08200    0.51720    1.000
    N26      N        0.37930    0.35100    0.33030    1.000
    H105     H        0.38550    0.28920    0.37640    1.000
    H106     H        0.40370    0.33280    0.30780    1.000
    H107     H        0.26310    0.65850    0.23600    1.000
    N27      N        0.25330    0.68810    0.23680    1.000
    H108     H        0.25250    0.74390    0.19850    1.000
    H109     H        0.23350    0.68600    0.26270    1.000
    H110     H        0.36930    0.38470    0.32390    1.000
    C105     C        0.49640    0.11060    0.54060    1.000
    H111     H        0.49370    0.18850    0.56750    1.000
    C106     C        0.46670    0.92710    0.47130    1.000
    H112     H        0.44380    0.87730    0.45070    1.000
    O57      O        0.41940    0.17460    0.56010    1.000
    O58      O        0.39260    0.02190    0.48410    1.000
    N28      N        0.49940    0.21600    0.59600    1.000
    H113     H        0.52210    0.24630    0.61620    1.000
    H114     H        0.47850    0.24790    0.60800    1.000
    C107     C        0.49520    0.06310    0.56880    1.000
    H115     H        0.49220    0.10680    0.61420    1.000
    C108     C        0.46870    0.97240    0.44620    1.000
    H116     H        0.44590    0.95210    0.40890    1.000
    O59      O        0.41780    0.13290    0.58060    1.000
    O60      O        0.39360    0.06090    0.46290    1.000
    N29      N        0.49850    0.15100    0.63350    1.000
    H117     H        0.52130    0.17510    0.65730    1.000
    H118     H        0.47770    0.17920    0.64750    1.000
    N30      N        0.30590    0.76000    0.63660    1.000
    H119     H        0.31970    0.83210    0.65020    1.000
    H120     H        0.30920    0.69130    0.66740    1.000
    Cd7      Cd       0.14854    0.67223    0.96249    1.000
    O61      O        0.15555    0.79410    0.06380    1.000
    O62      O        0.21347    0.87690    0.05390    1.000
    O63      O        0.14966    0.19200    0.36920    1.000
    O64      O        0.21320    0.22840    0.38380    1.000
    O65      O        0.17244    0.47920    0.91820    1.000
    O66      O        0.20975    0.57270    0.01610    1.000
    C109     C        0.18393    0.94590    0.15520    1.000
    C110     C        0.15240    0.94080    0.19220    1.000
    C111     C        0.15320    0.01590    0.25560    1.000
    H121     H        0.13130    0.01260    0.28100    1.000
    C112     C        0.18326    0.09660    0.28260    1.000
    C113     C        0.21550    0.09910    0.24560    1.000
    C114     C        0.21488    0.02590    0.18240    1.000
    H122     H        0.23650    0.03140    0.15610    1.000
    C115     C        0.18400    0.86640    0.08590    1.000
    C116     C        0.18240    0.17650    0.35100    1.000
    C117     C        0.22701    0.36040    0.98300    1.000
    C118     C        0.22117    0.25520    0.93420    1.000
    H123     H        0.20170    0.25900    0.88860    1.000
    C119     C        0.25681    0.35250    0.04910    1.000
    H124     H        0.26110    0.42450    0.08280    1.000
    C120     C        0.20192    0.47880    0.97090    1.000
    C121     C        0.03680    0.53810    0.98980    1.000
    C122     C        0.07830    0.58200    0.98280    1.000
    N31      N        0.12070    0.85100    0.16970    1.000
    H125     H        0.11450    0.78920    0.12360    1.000
    H126     H        0.09630    0.83280    0.19220    1.000
    H127     H        0.23690    0.15850    0.26400    1.000
    N32      N        0.24670    0.18810    0.26320    1.000
    H128     H        0.24750    0.24390    0.30150    1.000
    H129     H        0.26650    0.18600    0.23730    1.000
    H130     H        0.13070    0.88470    0.17610    1.000
    C123     C        0.00360    0.61060    0.95940    1.000
    H131     H        0.00630    0.68850    0.93250    1.000
    C124     C        0.03330    0.42710    0.02870    1.000
    H132     H        0.05620    0.37730    0.04930    1.000
    O67      O        0.08060    0.67460    0.93990    1.000
    O68      O        0.10740    0.52190    0.01590    1.000
    N33      N        0.00060    0.71600    0.90400    1.000
    H133     H        0.97790    0.74630    0.88380    1.000
    H134     H        0.02150    0.74790    0.89200    1.000
    C125     C        0.00480    0.56310    0.93120    1.000
    H135     H        0.00780    0.60680    0.88580    1.000
    C126     C        0.03130    0.47240    0.05380    1.000
    H136     H        0.05410    0.45210    0.09110    1.000
    O69      O        0.08220    0.63290    0.91940    1.000
    O70      O        0.10640    0.56090    0.03710    1.000
    N34      N        0.00150    0.65100    0.86650    1.000
    H137     H        0.97870    0.67510    0.84270    1.000
    H138     H        0.02230    0.67920    0.85250    1.000
    N35      N        0.19410    0.26000    0.86340    1.000
    H139     H        0.18030    0.33210    0.84980    1.000
    H140     H        0.19080    0.19130    0.83260    1.000
    Cd8      Cd       0.64854    0.17223    0.96249    1.000
    O71      O        0.65555    0.29410    0.06380    1.000
    O72      O        0.71347    0.37690    0.05390    1.000
    O73      O        0.64966    0.69200    0.36920    1.000
    O74      O        0.71320    0.72840    0.38380    1.000
    O75      O        0.67244    0.97920    0.91820    1.000
    O76      O        0.70975    0.07270    0.01610    1.000
    C127     C        0.68393    0.44590    0.15520    1.000
    C128     C        0.65240    0.44080    0.19220    1.000
    C129     C        0.65320    0.51590    0.25560    1.000
    H141     H        0.63130    0.51260    0.28100    1.000
    C130     C        0.68326    0.59660    0.28260    1.000
    C131     C        0.71550    0.59910    0.24560    1.000
    C132     C        0.71488    0.52590    0.18240    1.000
    H142     H        0.73650    0.53140    0.15610    1.000
    C133     C        0.68400    0.36640    0.08590    1.000
    C134     C        0.68240    0.67650    0.35100    1.000
    C135     C        0.72701    0.86040    0.98300    1.000
    C136     C        0.72117    0.75520    0.93420    1.000
    H143     H        0.70170    0.75900    0.88860    1.000
    C137     C        0.75681    0.85250    0.04910    1.000
    H144     H        0.76110    0.92450    0.08280    1.000
    C138     C        0.70192    0.97880    0.97090    1.000
    C139     C        0.53680    0.03810    0.98980    1.000
    C140     C        0.57830    0.08200    0.98280    1.000
    N36      N        0.62070    0.35100    0.16970    1.000
    H145     H        0.61450    0.28920    0.12360    1.000
    H146     H        0.59630    0.33280    0.19220    1.000
    H147     H        0.73690    0.65850    0.26400    1.000
    N37      N        0.74670    0.68810    0.26320    1.000
    H148     H        0.74750    0.74390    0.30150    1.000
    H149     H        0.76650    0.68600    0.23730    1.000
    H150     H        0.63070    0.38470    0.17610    1.000
    C141     C        0.50360    0.11060    0.95940    1.000
    H151     H        0.50630    0.18850    0.93250    1.000
    C142     C        0.53330    0.92710    0.02870    1.000
    H152     H        0.55620    0.87730    0.04930    1.000
    O77      O        0.58060    0.17460    0.93990    1.000
    O78      O        0.60740    0.02190    0.01590    1.000
    N38      N        0.50060    0.21600    0.90400    1.000
    H153     H        0.47790    0.24630    0.88380    1.000
    H154     H        0.52150    0.24790    0.89200    1.000
    C143     C        0.50480    0.06310    0.93120    1.000
    H155     H        0.50780    0.10680    0.88580    1.000
    C144     C        0.53130    0.97240    0.05380    1.000
    H156     H        0.55410    0.95210    0.09110    1.000
    O79      O        0.58220    0.13290    0.91940    1.000
    O80      O        0.60640    0.06090    0.03710    1.000
    N39      N        0.50150    0.15100    0.86650    1.000
    H157     H        0.47870    0.17510    0.84270    1.000
    H158     H        0.52230    0.17920    0.85250    1.000
    N40      N        0.69410    0.76000    0.86340    1.000
    H159     H        0.68030    0.83210    0.84980    1.000
    H160     H        0.69080    0.69130    0.83260    1.000
    Cd9      Cd       0.25000    0.25000    0.50000    1.000
    Cd10     Cd       0.75000    0.25000    0.00000    1.000
    Cd11     Cd       0.75000    0.75000    0.50000    1.000
    Cd12     Cd       0.25000    0.75000    0.00000    1.000
