# CIF file generated by openbabel 3.1.0, see https://openbabel.org
data_I
_chemical_name_common 'image0'
_cell_length_a 15.79
_cell_length_b 15.79
_cell_length_c 16.05
_cell_angle_alpha 90
_cell_angle_beta 90
_cell_angle_gamma 120
_space_group_name_H-M_alt 'P 1'
_space_group_name_Hall 'P 1'
loop_
    _symmetry_equiv_pos_as_xyz
    x,y,z
loop_
    _atom_site_label
    _atom_site_type_symbol
    _atom_site_fract_x
    _atom_site_fract_y
    _atom_site_fract_z
    _atom_site_occupancy
    F1       F        0.53480    0.18270    0.97390    1.000
    F2       F        0.58140    0.04960    0.84940    1.000
    O1       O        0.51450    0.16850    0.15990    1.000
    C1       C        0.51850    0.08780    0.98810    1.000
    C2       C        0.54410    0.01880    0.92630    1.000
    F3       F        0.81730    0.35210    0.97390    1.000
    F4       F        0.95040    0.53180    0.84940    1.000
    O2       O        0.83150    0.34600    0.15990    1.000
    C3       C        0.91220    0.43070    0.98810    1.000
    C4       C        0.98120    0.52530    0.92630    1.000
    F5       F        0.64790    0.46520    0.97390    1.000
    F6       F        0.46820    0.41860    0.84940    1.000
    O3       O        0.65400    0.48550    0.15990    1.000
    C5       C        0.56930    0.48150    0.98810    1.000
    C6       C        0.47470    0.45590    0.92630    1.000
    F7       F        0.46520    0.81730    0.47390    1.000
    F8       F        0.41860    0.95040    0.34940    1.000
    O4       O        0.48550    0.83150    0.65990    1.000
    C7       C        0.48150    0.91220    0.48810    1.000
    C8       C        0.45590    0.98120    0.42630    1.000
    F9       F        0.18270    0.64790    0.47390    1.000
    F10      F        0.04960    0.46820    0.34940    1.000
    O5       O        0.16850    0.65400    0.65990    1.000
    C9       C        0.08780    0.56930    0.48810    1.000
    C10      C        0.01880    0.47470    0.42630    1.000
    F11      F        0.35210    0.53480    0.47390    1.000
    F12      F        0.53180    0.58140    0.34940    1.000
    O6       O        0.34600    0.51450    0.65990    1.000
    C11      C        0.43070    0.51850    0.48810    1.000
    C12      C        0.52530    0.54410    0.42630    1.000
    F13      F        0.18270    0.53480    0.02610    1.000
    F14      F        0.04960    0.58140    0.15060    1.000
    O7       O        0.16850    0.51450    0.84010    1.000
    C13      C        0.08780    0.51850    0.01190    1.000
    C14      C        0.01880    0.54410    0.07370    1.000
    F15      F        0.35210    0.81730    0.02610    1.000
    F16      F        0.53180    0.95040    0.15060    1.000
    O8       O        0.34600    0.83150    0.84010    1.000
    C15      C        0.43070    0.91220    0.01190    1.000
    C16      C        0.52530    0.98120    0.07370    1.000
    F17      F        0.46520    0.64790    0.02610    1.000
    F18      F        0.41860    0.46820    0.15060    1.000
    O9       O        0.48550    0.65400    0.84010    1.000
    C17      C        0.48150    0.56930    0.01190    1.000
    C18      C        0.45590    0.47470    0.07370    1.000
    F19      F        0.81730    0.46520    0.52610    1.000
    F20      F        0.95040    0.41860    0.65060    1.000
    O10      O        0.83150    0.48550    0.34010    1.000
    C19      C        0.91220    0.48150    0.51190    1.000
    C20      C        0.98120    0.45590    0.57370    1.000
    F21      F        0.64790    0.18270    0.52610    1.000
    F22      F        0.46820    0.04960    0.65060    1.000
    O11      O        0.65400    0.16850    0.34010    1.000
    C21      C        0.56930    0.08780    0.51190    1.000
    C22      C        0.47470    0.01880    0.57370    1.000
    F23      F        0.53480    0.35210    0.52610    1.000
    F24      F        0.58140    0.53180    0.65060    1.000
    O12      O        0.51450    0.34600    0.34010    1.000
    C23      C        0.51850    0.43070    0.51190    1.000
    C24      C        0.54410    0.52530    0.57370    1.000
    F25      F        0.46520    0.81730    0.02610    1.000
    F26      F        0.41860    0.95040    0.15060    1.000
    O13      O        0.48550    0.83150    0.84010    1.000
    C25      C        0.48150    0.91220    0.01190    1.000
    C26      C        0.45590    0.98120    0.07370    1.000
    F27      F        0.18270    0.64790    0.02610    1.000
    F28      F        0.04960    0.46820    0.15060    1.000
    O14      O        0.16850    0.65400    0.84010    1.000
    C27      C        0.08780    0.56930    0.01190    1.000
    C28      C        0.01880    0.47470    0.07370    1.000
    F29      F        0.35210    0.53480    0.02610    1.000
    F30      F        0.53180    0.58140    0.15060    1.000
    O15      O        0.34600    0.51450    0.84010    1.000
    C29      C        0.43070    0.51850    0.01190    1.000
    C30      C        0.52530    0.54410    0.07370    1.000
    F31      F        0.53480    0.18270    0.52610    1.000
    F32      F        0.58140    0.04960    0.65060    1.000
    O16      O        0.51450    0.16850    0.34010    1.000
    C31      C        0.51850    0.08780    0.51190    1.000
    C32      C        0.54410    0.01880    0.57370    1.000
    F33      F        0.81730    0.35210    0.52610    1.000
    F34      F        0.95040    0.53180    0.65060    1.000
    O17      O        0.83150    0.34600    0.34010    1.000
    C33      C        0.91220    0.43070    0.51190    1.000
    C34      C        0.98120    0.52530    0.57370    1.000
    F35      F        0.64790    0.46520    0.52610    1.000
    F36      F        0.46820    0.41860    0.65060    1.000
    O18      O        0.65400    0.48550    0.34010    1.000
    C35      C        0.56930    0.48150    0.51190    1.000
    C36      C        0.47470    0.45590    0.57370    1.000
    F37      F        0.81730    0.46520    0.97390    1.000
    F38      F        0.95040    0.41860    0.84940    1.000
    O19      O        0.83150    0.48550    0.15990    1.000
    C37      C        0.91220    0.48150    0.98810    1.000
    C38      C        0.98120    0.45590    0.92630    1.000
    F39      F        0.64790    0.18270    0.97390    1.000
    F40      F        0.46820    0.04960    0.84940    1.000
    O20      O        0.65400    0.16850    0.15990    1.000
    C39      C        0.56930    0.08780    0.98810    1.000
    C40      C        0.47470    0.01880    0.92630    1.000
    F41      F        0.53480    0.35210    0.97390    1.000
    F42      F        0.58140    0.53180    0.84940    1.000
    O21      O        0.51450    0.34600    0.15990    1.000
    C41      C        0.51850    0.43070    0.98810    1.000
    C42      C        0.54410    0.52530    0.92630    1.000
    F43      F        0.18270    0.53480    0.47390    1.000
    F44      F        0.04960    0.58140    0.34940    1.000
    O22      O        0.16850    0.51450    0.65990    1.000
    C43      C        0.08780    0.51850    0.48810    1.000
    C44      C        0.01880    0.54410    0.42630    1.000
    F45      F        0.35210    0.81730    0.47390    1.000
    F46      F        0.53180    0.95040    0.34940    1.000
    O23      O        0.34600    0.83150    0.65990    1.000
    C45      C        0.43070    0.91220    0.48810    1.000
    C46      C        0.52530    0.98120    0.42630    1.000
    F47      F        0.46520    0.64790    0.47390    1.000
    F48      F        0.41860    0.46820    0.34940    1.000
    O24      O        0.48550    0.65400    0.65990    1.000
    C47      C        0.48150    0.56930    0.48810    1.000
    C48      C        0.45590    0.47470    0.42630    1.000
    Fe1      Fe       0.52879    0.26439    0.25000    1.000
    Fe2      Fe       0.73560    0.26439    0.25000    1.000
    Fe3      Fe       0.73560    0.47121    0.25000    1.000
    Fe4      Fe       0.47121    0.73560    0.75000    1.000
    Fe5      Fe       0.26440    0.73560    0.75000    1.000
    Fe6      Fe       0.26440    0.52879    0.75000    1.000
    O25      O        0.66667    0.33333    0.25000    1.000
    O26      O        0.33333    0.66667    0.75000    1.000
    C49      C        0.57045    0.14090    0.13670    1.000
    C50      C        0.53420    0.06840    0.06580    1.000
    C51      C        0.85910    0.42955    0.13670    1.000
    C52      C        0.93160    0.46580    0.06580    1.000
    C53      C        0.57045    0.42955    0.13670    1.000
    C54      C        0.53420    0.46580    0.06580    1.000
    C55      C        0.42955    0.85910    0.63670    1.000
    C56      C        0.46580    0.93160    0.56580    1.000
    C57      C        0.14090    0.57045    0.63670    1.000
    C58      C        0.06840    0.53420    0.56580    1.000
    C59      C        0.42955    0.57045    0.63670    1.000
    C60      C        0.46580    0.53420    0.56580    1.000
    C61      C        0.14090    0.57045    0.86330    1.000
    C62      C        0.06840    0.53420    0.93420    1.000
    C63      C        0.42955    0.85910    0.86330    1.000
    C64      C        0.46580    0.93160    0.93420    1.000
    C65      C        0.42955    0.57045    0.86330    1.000
    C66      C        0.46580    0.53420    0.93420    1.000
    C67      C        0.85910    0.42955    0.36330    1.000
    C68      C        0.93160    0.46580    0.43420    1.000
    C69      C        0.57045    0.14090    0.36330    1.000
    C70      C        0.53420    0.06840    0.43420    1.000
    C71      C        0.57045    0.42955    0.36330    1.000
    C72      C        0.53420    0.46580    0.43420    1.000
