# CIF file generated by openbabel 3.1.0, see https://openbabel.org
data_I
_chemical_name_common 'image0'
_cell_length_a 21.9944
_cell_length_b 16.6621
_cell_length_c 25.6363
_cell_angle_alpha 90
_cell_angle_beta 115.34
_cell_angle_gamma 90
_space_group_name_H-M_alt 'P 1'
_space_group_name_Hall 'P 1'
loop_
    _symmetry_equiv_pos_as_xyz
    x,y,z
loop_
    _atom_site_label
    _atom_site_type_symbol
    _atom_site_fract_x
    _atom_site_fract_y
    _atom_site_fract_z
    _atom_site_occupancy
    Ag1      Ag       0.77378    0.70901    0.36815    1.000
    Ag2      Ag       0.29535    0.00221    0.86757    1.000
    C1       C        0.15370    0.22000    0.00100    1.000
    C2       C        0.12790    0.00720    0.50190    1.000
    C3       C        0.92230    0.39980    0.89220    1.000
    H1       H        0.90210    0.40360    0.85220    1.000
    C4       C        0.12780    0.06170    0.41090    1.000
    H2       H        0.08520    0.04040    0.38960    1.000
    C5       C        0.90310    0.81660    0.38890    1.000
    H3       H        0.88500    0.81030    0.34910    1.000
    C6       C        0.98190    0.38700    0.00950    1.000
    H4       H        0.00080    0.38340    0.04950    1.000
    C7       C        0.07480    0.30140    0.00670    1.000
    C8       C        0.15940    0.05200    0.46940    1.000
    C9       C        0.15850    0.98590    0.65120    1.000
    C10      C        0.24340    0.13350    0.99650    1.000
    H5       H        0.26400    0.13260    0.03660    1.000
    C11      C        0.27110    0.09320    0.96470    1.000
    H6       H        0.31140    0.06600    0.98470    1.000
    C12      C        0.22280    0.08580    0.49880    1.000
    H7       H        0.24550    0.08130    0.53870    1.000
    C13      C        0.04970    0.92270    0.50510    1.000
    C14      C        0.18390    0.17540    0.96660    1.000
    C15      C        0.96070    0.86160    0.41530    1.000
    H8       H        0.98090    0.88440    0.39350    1.000
    C16      C        0.25130    0.12570    0.46830    1.000
    H9       H        0.29380    0.14770    0.48860    1.000
    C17      C        0.12770    0.97540    0.58760    1.000
    C18      C        0.95730    0.83400    0.50540    1.000
    H10      H        0.97510    0.83740    0.54540    1.000
    C19      C        0.19030    0.24310    0.15190    1.000
    C20      C        0.25240    0.20690    0.18090    1.000
    H11      H        0.27590    0.18800    0.16060    1.000
    C21      C        0.15820    0.25180    0.08770    1.000
    C22      C        0.16050    0.10370    0.38430    1.000
    H12      H        0.13830    0.11080    0.34450    1.000
    C23      C        0.98210    0.35790    0.91830    1.000
    H13      H        0.00150    0.33510    0.89600    1.000
    C24      C        0.98870    0.87260    0.47480    1.000
    C25      C        0.01270    0.35020    0.97740    1.000
    C26      C        0.21190    0.03760    0.67770    1.000
    H14      H        0.22800    0.06800    0.65590    1.000
    C27      C        0.18690    0.25710    0.24250    1.000
    H15      H        0.16410    0.27480    0.26370    1.000
    C28      C        0.89910    0.79070    0.47440    1.000
    H16      H        0.87800    0.76640    0.49500    1.000
    C29      C        0.27900    0.19920    0.24000    1.000
    H17      H        0.32140    0.17620    0.25920    1.000
    C30      C        0.92220    0.42880    0.97910    1.000
    H18      H        0.90210    0.45380    0.00020    1.000
    C31      C        0.15620    0.26790    0.18340    1.000
    H19      H        0.11380    0.29130    0.16540    1.000
    C32      C        0.15540    0.17530    0.90730    1.000
    H20      H        0.11640    0.20430    0.88630    1.000
    C33      C        0.13350    0.94530    0.68500    1.000
    H21      H        0.09530    0.91330    0.66850    1.000
    C34      C        0.24100    0.04360    0.73690    1.000
    H22      H        0.27640    0.07950    0.75440    1.000
    C35      C        0.16730    0.95390    0.74410    1.000
    H23      H        0.15140    0.92520    0.76680    1.000
    C36      C        0.18570    0.13140    0.87930    1.000
    H24      H        0.16510    0.12980    0.83910    1.000
    N1       N        0.87140    0.78130    0.41750    1.000
    N2       N        0.22190    0.13480    0.41160    1.000
    N3       N        0.22070    0.00010    0.77080    1.000
    N4       N        0.07410    0.96100    0.47230    1.000
    N5       N        0.15600    0.01750    0.55910    1.000
    N6       N        0.07480    0.92730    0.56280    1.000
    N7       N        0.24380    0.09060    0.90720    1.000
    N8       N        0.24650    0.22340    0.27120    1.000
    N9       N        0.89200    0.43510    0.92170    1.000
    N10      N        0.18620    0.21290    0.05850    1.000
    N11      N        0.10370    0.29900    0.06410    1.000
    N12      N        0.09760    0.26060    0.97320    1.000
    Ag3      Ag       0.27378    0.20901    0.36815    1.000
    Ag4      Ag       0.79535    0.50221    0.86757    1.000
    C37      C        0.65370    0.72000    0.00100    1.000
    C38      C        0.62790    0.50720    0.50190    1.000
    C39      C        0.42230    0.89980    0.89220    1.000
    H25      H        0.40210    0.90360    0.85220    1.000
    C40      C        0.62780    0.56170    0.41090    1.000
    H26      H        0.58520    0.54040    0.38960    1.000
    C41      C        0.40310    0.31660    0.38890    1.000
    H27      H        0.38500    0.31030    0.34910    1.000
    C42      C        0.48190    0.88700    0.00950    1.000
    H28      H        0.50080    0.88340    0.04950    1.000
    C43      C        0.57480    0.80140    0.00670    1.000
    C44      C        0.65940    0.55200    0.46940    1.000
    C45      C        0.65850    0.48590    0.65120    1.000
    C46      C        0.74340    0.63350    0.99650    1.000
    H29      H        0.76400    0.63260    0.03660    1.000
    C47      C        0.77110    0.59320    0.96470    1.000
    H30      H        0.81140    0.56600    0.98470    1.000
    C48      C        0.72280    0.58580    0.49880    1.000
    H31      H        0.74550    0.58130    0.53870    1.000
    C49      C        0.54970    0.42270    0.50510    1.000
    C50      C        0.68390    0.67540    0.96660    1.000
    C51      C        0.46070    0.36160    0.41530    1.000
    H32      H        0.48090    0.38440    0.39350    1.000
    C52      C        0.75130    0.62570    0.46830    1.000
    H33      H        0.79380    0.64770    0.48860    1.000
    C53      C        0.62770    0.47540    0.58760    1.000
    C54      C        0.45730    0.33400    0.50540    1.000
    H34      H        0.47510    0.33740    0.54540    1.000
    C55      C        0.69030    0.74310    0.15190    1.000
    C56      C        0.75240    0.70690    0.18090    1.000
    H35      H        0.77590    0.68800    0.16060    1.000
    C57      C        0.65820    0.75180    0.08770    1.000
    C58      C        0.66050    0.60370    0.38430    1.000
    H36      H        0.63830    0.61080    0.34450    1.000
    C59      C        0.48210    0.85790    0.91830    1.000
    H37      H        0.50150    0.83510    0.89600    1.000
    C60      C        0.48870    0.37260    0.47480    1.000
    C61      C        0.51270    0.85020    0.97740    1.000
    C62      C        0.71190    0.53760    0.67770    1.000
    H38      H        0.72800    0.56800    0.65590    1.000
    C63      C        0.68690    0.75710    0.24250    1.000
    H39      H        0.66410    0.77480    0.26370    1.000
    C64      C        0.39910    0.29070    0.47440    1.000
    H40      H        0.37800    0.26640    0.49500    1.000
    C65      C        0.77900    0.69920    0.24000    1.000
    H41      H        0.82140    0.67620    0.25920    1.000
    C66      C        0.42220    0.92880    0.97910    1.000
    H42      H        0.40210    0.95380    0.00020    1.000
    C67      C        0.65620    0.76790    0.18340    1.000
    H43      H        0.61380    0.79130    0.16540    1.000
    C68      C        0.65540    0.67530    0.90730    1.000
    H44      H        0.61640    0.70430    0.88630    1.000
    C69      C        0.63350    0.44530    0.68500    1.000
    H45      H        0.59530    0.41330    0.66850    1.000
    C70      C        0.74100    0.54360    0.73690    1.000
    H46      H        0.77640    0.57950    0.75440    1.000
    C71      C        0.66730    0.45390    0.74410    1.000
    H47      H        0.65140    0.42520    0.76680    1.000
    C72      C        0.68570    0.63140    0.87930    1.000
    H48      H        0.66510    0.62980    0.83910    1.000
    N13      N        0.37140    0.28130    0.41750    1.000
    N14      N        0.72190    0.63480    0.41160    1.000
    N15      N        0.72070    0.50010    0.77080    1.000
    N16      N        0.57410    0.46100    0.47230    1.000
    N17      N        0.65600    0.51750    0.55910    1.000
    N18      N        0.57480    0.42730    0.56280    1.000
    N19      N        0.74380    0.59060    0.90720    1.000
    N20      N        0.74650    0.72340    0.27120    1.000
    N21      N        0.39200    0.93510    0.92170    1.000
    N22      N        0.68620    0.71290    0.05850    1.000
    N23      N        0.60370    0.79900    0.06410    1.000
    N24      N        0.59760    0.76060    0.97320    1.000
    Ag5      Ag       0.22622    0.70901    0.13185    1.000
    Ag6      Ag       0.70465    0.00221    0.63243    1.000
    C73      C        0.84630    0.22000    0.49900    1.000
    C74      C        0.87210    0.00720    0.99810    1.000
    C75      C        0.07770    0.39980    0.60780    1.000
    H49      H        0.09790    0.40360    0.64780    1.000
    C76      C        0.87220    0.06170    0.08910    1.000
    H50      H        0.91480    0.04040    0.11040    1.000
    C77      C        0.09690    0.81660    0.11110    1.000
    H51      H        0.11500    0.81030    0.15090    1.000
    C78      C        0.01810    0.38700    0.49050    1.000
    H52      H        0.99920    0.38340    0.45050    1.000
    C79      C        0.92520    0.30140    0.49330    1.000
    C80      C        0.84060    0.05200    0.03060    1.000
    C81      C        0.84150    0.98590    0.84880    1.000
    C82      C        0.75660    0.13350    0.50350    1.000
    H53      H        0.73600    0.13260    0.46340    1.000
    C83      C        0.72890    0.09320    0.53530    1.000
    H54      H        0.68860    0.06600    0.51530    1.000
    C84      C        0.77720    0.08580    0.00120    1.000
    H55      H        0.75450    0.08130    0.96130    1.000
    C85      C        0.95030    0.92270    0.99490    1.000
    C86      C        0.81610    0.17540    0.53340    1.000
    C87      C        0.03930    0.86160    0.08470    1.000
    H56      H        0.01910    0.88440    0.10650    1.000
    C88      C        0.74870    0.12570    0.03170    1.000
    H57      H        0.70620    0.14770    0.01140    1.000
    C89      C        0.87230    0.97540    0.91240    1.000
    C90      C        0.04270    0.83400    0.99460    1.000
    H58      H        0.02490    0.83740    0.95460    1.000
    C91      C        0.80970    0.24310    0.34810    1.000
    C92      C        0.74760    0.20690    0.31910    1.000
    H59      H        0.72410    0.18800    0.33940    1.000
    C93      C        0.84180    0.25180    0.41230    1.000
    C94      C        0.83950    0.10370    0.11570    1.000
    H60      H        0.86170    0.11080    0.15550    1.000
    C95      C        0.01790    0.35790    0.58170    1.000
    H61      H        0.99850    0.33510    0.60400    1.000
    C96      C        0.01130    0.87260    0.02520    1.000
    C97      C        0.98730    0.35020    0.52260    1.000
    C98      C        0.78810    0.03760    0.82230    1.000
    H62      H        0.77200    0.06800    0.84410    1.000
    C99      C        0.81310    0.25710    0.25750    1.000
    H63      H        0.83590    0.27480    0.23630    1.000
    C100     C        0.10090    0.79070    0.02560    1.000
    H64      H        0.12200    0.76640    0.00500    1.000
    C101     C        0.72100    0.19920    0.26000    1.000
    H65      H        0.67860    0.17620    0.24080    1.000
    C102     C        0.07780    0.42880    0.52090    1.000
    H66      H        0.09790    0.45380    0.49980    1.000
    C103     C        0.84380    0.26790    0.31660    1.000
    H67      H        0.88620    0.29130    0.33460    1.000
    C104     C        0.84460    0.17530    0.59270    1.000
    H68      H        0.88360    0.20430    0.61370    1.000
    C105     C        0.86650    0.94530    0.81500    1.000
    H69      H        0.90470    0.91330    0.83150    1.000
    C106     C        0.75900    0.04360    0.76310    1.000
    H70      H        0.72360    0.07950    0.74560    1.000
    C107     C        0.83270    0.95390    0.75590    1.000
    H71      H        0.84860    0.92520    0.73320    1.000
    C108     C        0.81430    0.13140    0.62070    1.000
    H72      H        0.83490    0.12980    0.66090    1.000
    N25      N        0.12860    0.78130    0.08250    1.000
    N26      N        0.77810    0.13480    0.08840    1.000
    N27      N        0.77930    0.00010    0.72920    1.000
    N28      N        0.92590    0.96100    0.02770    1.000
    N29      N        0.84400    0.01750    0.94090    1.000
    N30      N        0.92520    0.92730    0.93720    1.000
    N31      N        0.75620    0.09060    0.59280    1.000
    N32      N        0.75350    0.22340    0.22880    1.000
    N33      N        0.10800    0.43510    0.57830    1.000
    N34      N        0.81380    0.21290    0.44150    1.000
    N35      N        0.89630    0.29900    0.43590    1.000
    N36      N        0.90240    0.26060    0.52680    1.000
    Ag7      Ag       0.72622    0.20901    0.13185    1.000
    Ag8      Ag       0.20465    0.50221    0.63243    1.000
    C109     C        0.34630    0.72000    0.49900    1.000
    C110     C        0.37210    0.50720    0.99810    1.000
    C111     C        0.57770    0.89980    0.60780    1.000
    H73      H        0.59790    0.90360    0.64780    1.000
    C112     C        0.37220    0.56170    0.08910    1.000
    H74      H        0.41480    0.54040    0.11040    1.000
    C113     C        0.59690    0.31660    0.11110    1.000
    H75      H        0.61500    0.31030    0.15090    1.000
    C114     C        0.51810    0.88700    0.49050    1.000
    H76      H        0.49920    0.88340    0.45050    1.000
    C115     C        0.42520    0.80140    0.49330    1.000
    C116     C        0.34060    0.55200    0.03060    1.000
    C117     C        0.34150    0.48590    0.84880    1.000
    C118     C        0.25660    0.63350    0.50350    1.000
    H77      H        0.23600    0.63260    0.46340    1.000
    C119     C        0.22890    0.59320    0.53530    1.000
    H78      H        0.18860    0.56600    0.51530    1.000
    C120     C        0.27720    0.58580    0.00120    1.000
    H79      H        0.25450    0.58130    0.96130    1.000
    C121     C        0.45030    0.42270    0.99490    1.000
    C122     C        0.31610    0.67540    0.53340    1.000
    C123     C        0.53930    0.36160    0.08470    1.000
    H80      H        0.51910    0.38440    0.10650    1.000
    C124     C        0.24870    0.62570    0.03170    1.000
    H81      H        0.20620    0.64770    0.01140    1.000
    C125     C        0.37230    0.47540    0.91240    1.000
    C126     C        0.54270    0.33400    0.99460    1.000
    H82      H        0.52490    0.33740    0.95460    1.000
    C127     C        0.30970    0.74310    0.34810    1.000
    C128     C        0.24760    0.70690    0.31910    1.000
    H83      H        0.22410    0.68800    0.33940    1.000
    C129     C        0.34180    0.75180    0.41230    1.000
    C130     C        0.33950    0.60370    0.11570    1.000
    H84      H        0.36170    0.61080    0.15550    1.000
    C131     C        0.51790    0.85790    0.58170    1.000
    H85      H        0.49850    0.83510    0.60400    1.000
    C132     C        0.51130    0.37260    0.02520    1.000
    C133     C        0.48730    0.85020    0.52260    1.000
    C134     C        0.28810    0.53760    0.82230    1.000
    H86      H        0.27200    0.56800    0.84410    1.000
    C135     C        0.31310    0.75710    0.25750    1.000
    H87      H        0.33590    0.77480    0.23630    1.000
    C136     C        0.60090    0.29070    0.02560    1.000
    H88      H        0.62200    0.26640    0.00500    1.000
    C137     C        0.22100    0.69920    0.26000    1.000
    H89      H        0.17860    0.67620    0.24080    1.000
    C138     C        0.57780    0.92880    0.52090    1.000
    H90      H        0.59790    0.95380    0.49980    1.000
    C139     C        0.34380    0.76790    0.31660    1.000
    H91      H        0.38620    0.79130    0.33460    1.000
    C140     C        0.34460    0.67530    0.59270    1.000
    H92      H        0.38360    0.70430    0.61370    1.000
    C141     C        0.36650    0.44530    0.81500    1.000
    H93      H        0.40470    0.41330    0.83150    1.000
    C142     C        0.25900    0.54360    0.76310    1.000
    H94      H        0.22360    0.57950    0.74560    1.000
    C143     C        0.33270    0.45390    0.75590    1.000
    H95      H        0.34860    0.42520    0.73320    1.000
    C144     C        0.31430    0.63140    0.62070    1.000
    H96      H        0.33490    0.62980    0.66090    1.000
    N37      N        0.62860    0.28130    0.08250    1.000
    N38      N        0.27810    0.63480    0.08840    1.000
    N39      N        0.27930    0.50010    0.72920    1.000
    N40      N        0.42590    0.46100    0.02770    1.000
    N41      N        0.34400    0.51750    0.94090    1.000
    N42      N        0.42520    0.42730    0.93720    1.000
    N43      N        0.25620    0.59060    0.59280    1.000
    N44      N        0.25350    0.72340    0.22880    1.000
    N45      N        0.60800    0.93510    0.57830    1.000
    N46      N        0.31380    0.71290    0.44150    1.000
    N47      N        0.39630    0.79900    0.43590    1.000
    N48      N        0.40240    0.76060    0.52680    1.000
    Ag9      Ag       0.22622    0.29099    0.63185    1.000
    Ag10     Ag       0.70465    0.99779    0.13243    1.000
    C145     C        0.84630    0.78000    0.99900    1.000
    C146     C        0.87210    0.99280    0.49810    1.000
    C147     C        0.07770    0.60020    0.10780    1.000
    H97      H        0.09790    0.59640    0.14780    1.000
    C148     C        0.87220    0.93830    0.58910    1.000
    H98      H        0.91480    0.95960    0.61040    1.000
    C149     C        0.09690    0.18340    0.61110    1.000
    H99      H        0.11500    0.18970    0.65090    1.000
    C150     C        0.01810    0.61300    0.99050    1.000
    H100     H        0.99920    0.61660    0.95050    1.000
    C151     C        0.92520    0.69860    0.99330    1.000
    C152     C        0.84060    0.94800    0.53060    1.000
    C153     C        0.84150    0.01410    0.34880    1.000
    C154     C        0.75660    0.86650    0.00350    1.000
    H101     H        0.73600    0.86740    0.96340    1.000
    C155     C        0.72890    0.90680    0.03530    1.000
    H102     H        0.68860    0.93400    0.01530    1.000
    C156     C        0.77720    0.91420    0.50120    1.000
    H103     H        0.75450    0.91870    0.46130    1.000
    C157     C        0.95030    0.07730    0.49490    1.000
    C158     C        0.81610    0.82460    0.03340    1.000
    C159     C        0.03930    0.13840    0.58470    1.000
    H104     H        0.01910    0.11560    0.60650    1.000
    C160     C        0.74870    0.87430    0.53170    1.000
    H105     H        0.70620    0.85230    0.51140    1.000
    C161     C        0.87230    0.02460    0.41240    1.000
    C162     C        0.04270    0.16600    0.49460    1.000
    H106     H        0.02490    0.16260    0.45460    1.000
    C163     C        0.80970    0.75690    0.84810    1.000
    C164     C        0.74760    0.79310    0.81910    1.000
    H107     H        0.72410    0.81200    0.83940    1.000
    C165     C        0.84180    0.74820    0.91230    1.000
    C166     C        0.83950    0.89630    0.61570    1.000
    H108     H        0.86170    0.88920    0.65550    1.000
    C167     C        0.01790    0.64210    0.08170    1.000
    H109     H        0.99850    0.66490    0.10400    1.000
    C168     C        0.01130    0.12740    0.52520    1.000
    C169     C        0.98730    0.64980    0.02260    1.000
    C170     C        0.78810    0.96240    0.32230    1.000
    H110     H        0.77200    0.93200    0.34410    1.000
    C171     C        0.81310    0.74290    0.75750    1.000
    H111     H        0.83590    0.72520    0.73630    1.000
    C172     C        0.10090    0.20930    0.52560    1.000
    H112     H        0.12200    0.23360    0.50500    1.000
    C173     C        0.72100    0.80080    0.76000    1.000
    H113     H        0.67860    0.82380    0.74080    1.000
    C174     C        0.07780    0.57120    0.02090    1.000
    H114     H        0.09790    0.54620    0.99980    1.000
    C175     C        0.84380    0.73210    0.81660    1.000
    H115     H        0.88620    0.70870    0.83460    1.000
    C176     C        0.84460    0.82470    0.09270    1.000
    H116     H        0.88360    0.79570    0.11370    1.000
    C177     C        0.86650    0.05470    0.31500    1.000
    H117     H        0.90470    0.08670    0.33150    1.000
    C178     C        0.75900    0.95640    0.26310    1.000
    H118     H        0.72360    0.92050    0.24560    1.000
    C179     C        0.83270    0.04610    0.25590    1.000
    H119     H        0.84860    0.07480    0.23320    1.000
    C180     C        0.81430    0.86860    0.12070    1.000
    H120     H        0.83490    0.87020    0.16090    1.000
    N49      N        0.12860    0.21870    0.58250    1.000
    N50      N        0.77810    0.86520    0.58840    1.000
    N51      N        0.77930    0.99990    0.22920    1.000
    N52      N        0.92590    0.03900    0.52770    1.000
    N53      N        0.84400    0.98250    0.44090    1.000
    N54      N        0.92520    0.07270    0.43720    1.000
    N55      N        0.75620    0.90940    0.09280    1.000
    N56      N        0.75350    0.77660    0.72880    1.000
    N57      N        0.10800    0.56490    0.07830    1.000
    N58      N        0.81380    0.78710    0.94150    1.000
    N59      N        0.89630    0.70100    0.93590    1.000
    N60      N        0.90240    0.73940    0.02680    1.000
    Ag11     Ag       0.72622    0.79099    0.63185    1.000
    Ag12     Ag       0.20465    0.49779    0.13243    1.000
    C181     C        0.34630    0.28000    0.99900    1.000
    C182     C        0.37210    0.49280    0.49810    1.000
    C183     C        0.57770    0.10020    0.10780    1.000
    H121     H        0.59790    0.09640    0.14780    1.000
    C184     C        0.37220    0.43830    0.58910    1.000
    H122     H        0.41480    0.45960    0.61040    1.000
    C185     C        0.59690    0.68340    0.61110    1.000
    H123     H        0.61500    0.68970    0.65090    1.000
    C186     C        0.51810    0.11300    0.99050    1.000
    H124     H        0.49920    0.11660    0.95050    1.000
    C187     C        0.42520    0.19860    0.99330    1.000
    C188     C        0.34060    0.44800    0.53060    1.000
    C189     C        0.34150    0.51410    0.34880    1.000
    C190     C        0.25660    0.36650    0.00350    1.000
    H125     H        0.23600    0.36740    0.96340    1.000
    C191     C        0.22890    0.40680    0.03530    1.000
    H126     H        0.18860    0.43400    0.01530    1.000
    C192     C        0.27720    0.41420    0.50120    1.000
    H127     H        0.25450    0.41870    0.46130    1.000
    C193     C        0.45030    0.57730    0.49490    1.000
    C194     C        0.31610    0.32460    0.03340    1.000
    C195     C        0.53930    0.63840    0.58470    1.000
    H128     H        0.51910    0.61560    0.60650    1.000
    C196     C        0.24870    0.37430    0.53170    1.000
    H129     H        0.20620    0.35230    0.51140    1.000
    C197     C        0.37230    0.52460    0.41240    1.000
    C198     C        0.54270    0.66600    0.49460    1.000
    H130     H        0.52490    0.66260    0.45460    1.000
    C199     C        0.30970    0.25690    0.84810    1.000
    C200     C        0.24760    0.29310    0.81910    1.000
    H131     H        0.22410    0.31200    0.83940    1.000
    C201     C        0.34180    0.24820    0.91230    1.000
    C202     C        0.33950    0.39630    0.61570    1.000
    H132     H        0.36170    0.38920    0.65550    1.000
    C203     C        0.51790    0.14210    0.08170    1.000
    H133     H        0.49850    0.16490    0.10400    1.000
    C204     C        0.51130    0.62740    0.52520    1.000
    C205     C        0.48730    0.14980    0.02260    1.000
    C206     C        0.28810    0.46240    0.32230    1.000
    H134     H        0.27200    0.43200    0.34410    1.000
    C207     C        0.31310    0.24290    0.75750    1.000
    H135     H        0.33590    0.22520    0.73630    1.000
    C208     C        0.60090    0.70930    0.52560    1.000
    H136     H        0.62200    0.73360    0.50500    1.000
    C209     C        0.22100    0.30080    0.76000    1.000
    H137     H        0.17860    0.32380    0.74080    1.000
    C210     C        0.57780    0.07120    0.02090    1.000
    H138     H        0.59790    0.04620    0.99980    1.000
    C211     C        0.34380    0.23210    0.81660    1.000
    H139     H        0.38620    0.20870    0.83460    1.000
    C212     C        0.34460    0.32470    0.09270    1.000
    H140     H        0.38360    0.29570    0.11370    1.000
    C213     C        0.36650    0.55470    0.31500    1.000
    H141     H        0.40470    0.58670    0.33150    1.000
    C214     C        0.25900    0.45640    0.26310    1.000
    H142     H        0.22360    0.42050    0.24560    1.000
    C215     C        0.33270    0.54610    0.25590    1.000
    H143     H        0.34860    0.57480    0.23320    1.000
    C216     C        0.31430    0.36860    0.12070    1.000
    H144     H        0.33490    0.37020    0.16090    1.000
    N61      N        0.62860    0.71870    0.58250    1.000
    N62      N        0.27810    0.36520    0.58840    1.000
    N63      N        0.27930    0.49990    0.22920    1.000
    N64      N        0.42590    0.53900    0.52770    1.000
    N65      N        0.34400    0.48250    0.44090    1.000
    N66      N        0.42520    0.57270    0.43720    1.000
    N67      N        0.25620    0.40940    0.09280    1.000
    N68      N        0.25350    0.27660    0.72880    1.000
    N69      N        0.60800    0.06490    0.07830    1.000
    N70      N        0.31380    0.28710    0.94150    1.000
    N71      N        0.39630    0.20100    0.93590    1.000
    N72      N        0.40240    0.23940    0.02680    1.000
    Ag13     Ag       0.77378    0.29099    0.86815    1.000
    Ag14     Ag       0.29535    0.99779    0.36757    1.000
    C217     C        0.15370    0.78000    0.50100    1.000
    C218     C        0.12790    0.99280    0.00190    1.000
    C219     C        0.92230    0.60020    0.39220    1.000
    H145     H        0.90210    0.59640    0.35220    1.000
    C220     C        0.12780    0.93830    0.91090    1.000
    H146     H        0.08520    0.95960    0.88960    1.000
    C221     C        0.90310    0.18340    0.88890    1.000
    H147     H        0.88500    0.18970    0.84910    1.000
    C222     C        0.98190    0.61300    0.50950    1.000
    H148     H        0.00080    0.61660    0.54950    1.000
    C223     C        0.07480    0.69860    0.50670    1.000
    C224     C        0.15940    0.94800    0.96940    1.000
    C225     C        0.15850    0.01410    0.15120    1.000
    C226     C        0.24340    0.86650    0.49650    1.000
    H149     H        0.26400    0.86740    0.53660    1.000
    C227     C        0.27110    0.90680    0.46470    1.000
    H150     H        0.31140    0.93400    0.48470    1.000
    C228     C        0.22280    0.91420    0.99880    1.000
    H151     H        0.24550    0.91870    0.03870    1.000
    C229     C        0.04970    0.07730    0.00510    1.000
    C230     C        0.18390    0.82460    0.46660    1.000
    C231     C        0.96070    0.13840    0.91530    1.000
    H152     H        0.98090    0.11560    0.89350    1.000
    C232     C        0.25130    0.87430    0.96830    1.000
    H153     H        0.29380    0.85230    0.98860    1.000
    C233     C        0.12770    0.02460    0.08760    1.000
    C234     C        0.95730    0.16600    0.00540    1.000
    H154     H        0.97510    0.16260    0.04540    1.000
    C235     C        0.19030    0.75690    0.65190    1.000
    C236     C        0.25240    0.79310    0.68090    1.000
    H155     H        0.27590    0.81200    0.66060    1.000
    C237     C        0.15820    0.74820    0.58770    1.000
    C238     C        0.16050    0.89630    0.88430    1.000
    H156     H        0.13830    0.88920    0.84450    1.000
    C239     C        0.98210    0.64210    0.41830    1.000
    H157     H        0.00150    0.66490    0.39600    1.000
    C240     C        0.98870    0.12740    0.97480    1.000
    C241     C        0.01270    0.64980    0.47740    1.000
    C242     C        0.21190    0.96240    0.17770    1.000
    H158     H        0.22800    0.93200    0.15590    1.000
    C243     C        0.18690    0.74290    0.74250    1.000
    H159     H        0.16410    0.72520    0.76370    1.000
    C244     C        0.89910    0.20930    0.97440    1.000
    H160     H        0.87800    0.23360    0.99500    1.000
    C245     C        0.27900    0.80080    0.74000    1.000
    H161     H        0.32140    0.82380    0.75920    1.000
    C246     C        0.92220    0.57120    0.47910    1.000
    H162     H        0.90210    0.54620    0.50020    1.000
    C247     C        0.15620    0.73210    0.68340    1.000
    H163     H        0.11380    0.70870    0.66540    1.000
    C248     C        0.15540    0.82470    0.40730    1.000
    H164     H        0.11640    0.79570    0.38630    1.000
    C249     C        0.13350    0.05470    0.18500    1.000
    H165     H        0.09530    0.08670    0.16850    1.000
    C250     C        0.24100    0.95640    0.23690    1.000
    H166     H        0.27640    0.92050    0.25440    1.000
    C251     C        0.16730    0.04610    0.24410    1.000
    H167     H        0.15140    0.07480    0.26680    1.000
    C252     C        0.18570    0.86860    0.37930    1.000
    H168     H        0.16510    0.87020    0.33910    1.000
    N73      N        0.87140    0.21870    0.91750    1.000
    N74      N        0.22190    0.86520    0.91160    1.000
    N75      N        0.22070    0.99990    0.27080    1.000
    N76      N        0.07410    0.03900    0.97230    1.000
    N77      N        0.15600    0.98250    0.05910    1.000
    N78      N        0.07480    0.07270    0.06280    1.000
    N79      N        0.24380    0.90940    0.40720    1.000
    N80      N        0.24650    0.77660    0.77120    1.000
    N81      N        0.89200    0.56490    0.42170    1.000
    N82      N        0.18620    0.78710    0.55850    1.000
    N83      N        0.10370    0.70100    0.56410    1.000
    N84      N        0.09760    0.73940    0.47320    1.000
    Ag15     Ag       0.27378    0.79099    0.86815    1.000
    Ag16     Ag       0.79535    0.49779    0.36757    1.000
    C253     C        0.65370    0.28000    0.50100    1.000
    C254     C        0.62790    0.49280    0.00190    1.000
    C255     C        0.42230    0.10020    0.39220    1.000
    H169     H        0.40210    0.09640    0.35220    1.000
    C256     C        0.62780    0.43830    0.91090    1.000
    H170     H        0.58520    0.45960    0.88960    1.000
    C257     C        0.40310    0.68340    0.88890    1.000
    H171     H        0.38500    0.68970    0.84910    1.000
    C258     C        0.48190    0.11300    0.50950    1.000
    H172     H        0.50080    0.11660    0.54950    1.000
    C259     C        0.57480    0.19860    0.50670    1.000
    C260     C        0.65940    0.44800    0.96940    1.000
    C261     C        0.65850    0.51410    0.15120    1.000
    C262     C        0.74340    0.36650    0.49650    1.000
    H173     H        0.76400    0.36740    0.53660    1.000
    C263     C        0.77110    0.40680    0.46470    1.000
    H174     H        0.81140    0.43400    0.48470    1.000
    C264     C        0.72280    0.41420    0.99880    1.000
    H175     H        0.74550    0.41870    0.03870    1.000
    C265     C        0.54970    0.57730    0.00510    1.000
    C266     C        0.68390    0.32460    0.46660    1.000
    C267     C        0.46070    0.63840    0.91530    1.000
    H176     H        0.48090    0.61560    0.89350    1.000
    C268     C        0.75130    0.37430    0.96830    1.000
    H177     H        0.79380    0.35230    0.98860    1.000
    C269     C        0.62770    0.52460    0.08760    1.000
    C270     C        0.45730    0.66600    0.00540    1.000
    H178     H        0.47510    0.66260    0.04540    1.000
    C271     C        0.69030    0.25690    0.65190    1.000
    C272     C        0.75240    0.29310    0.68090    1.000
    H179     H        0.77590    0.31200    0.66060    1.000
    C273     C        0.65820    0.24820    0.58770    1.000
    C274     C        0.66050    0.39630    0.88430    1.000
    H180     H        0.63830    0.38920    0.84450    1.000
    C275     C        0.48210    0.14210    0.41830    1.000
    H181     H        0.50150    0.16490    0.39600    1.000
    C276     C        0.48870    0.62740    0.97480    1.000
    C277     C        0.51270    0.14980    0.47740    1.000
    C278     C        0.71190    0.46240    0.17770    1.000
    H182     H        0.72800    0.43200    0.15590    1.000
    C279     C        0.68690    0.24290    0.74250    1.000
    H183     H        0.66410    0.22520    0.76370    1.000
    C280     C        0.39910    0.70930    0.97440    1.000
    H184     H        0.37800    0.73360    0.99500    1.000
    C281     C        0.77900    0.30080    0.74000    1.000
    H185     H        0.82140    0.32380    0.75920    1.000
    C282     C        0.42220    0.07120    0.47910    1.000
    H186     H        0.40210    0.04620    0.50020    1.000
    C283     C        0.65620    0.23210    0.68340    1.000
    H187     H        0.61380    0.20870    0.66540    1.000
    C284     C        0.65540    0.32470    0.40730    1.000
    H188     H        0.61640    0.29570    0.38630    1.000
    C285     C        0.63350    0.55470    0.18500    1.000
    H189     H        0.59530    0.58670    0.16850    1.000
    C286     C        0.74100    0.45640    0.23690    1.000
    H190     H        0.77640    0.42050    0.25440    1.000
    C287     C        0.66730    0.54610    0.24410    1.000
    H191     H        0.65140    0.57480    0.26680    1.000
    C288     C        0.68570    0.36860    0.37930    1.000
    H192     H        0.66510    0.37020    0.33910    1.000
    N85      N        0.37140    0.71870    0.91750    1.000
    N86      N        0.72190    0.36520    0.91160    1.000
    N87      N        0.72070    0.49990    0.27080    1.000
    N88      N        0.57410    0.53900    0.97230    1.000
    N89      N        0.65600    0.48250    0.05910    1.000
    N90      N        0.57480    0.57270    0.06280    1.000
    N91      N        0.74380    0.40940    0.40720    1.000
    N92      N        0.74650    0.27660    0.77120    1.000
    N93      N        0.39200    0.06490    0.42170    1.000
    N94      N        0.68620    0.28710    0.55850    1.000
    N95      N        0.60370    0.20100    0.56410    1.000
    N96      N        0.59760    0.23940    0.47320    1.000
