# CIF file generated by openbabel 3.1.0, see https://openbabel.org
data_I
_chemical_name_common 'image0'
_cell_length_a 11.994
_cell_length_b 12.367
_cell_length_c 12.552
_cell_angle_alpha 90
_cell_angle_beta 116.36
_cell_angle_gamma 90
_space_group_name_H-M_alt 'P 1'
_space_group_name_Hall 'P 1'
loop_
    _symmetry_equiv_pos_as_xyz
    x,y,z
loop_
    _atom_site_label
    _atom_site_type_symbol
    _atom_site_fract_x
    _atom_site_fract_y
    _atom_site_fract_z
    _atom_site_occupancy
    C1       C        0.37860    0.81480    0.13860    1.000
    C2       C        0.25390    0.84620    0.07450    1.000
    N1       N        0.15340    0.87700    0.03050    1.000
    C3       C        0.44640    0.86570    0.24940    1.000
    N2       N        0.49520    0.91230    0.33720    1.000
    C4       C        0.43120    0.73110    0.10210    1.000
    N3       N        0.47510    0.66230    0.07180    1.000
    N4       N        0.08770    0.03990    0.21340    1.000
    C5       C        0.22240    0.01670    0.27530    1.000
    C6       C        0.02540    0.96920    0.26920    1.000
    C7       C        0.06940    0.15550    0.23820    1.000
    N5       N        0.27810    0.03620    0.40590    1.000
    C8       C        0.20870    0.96530    0.45430    1.000
    C9       C        0.25170    0.15110    0.42400    1.000
    N6       N        0.07470    0.98940    0.39750    1.000
    N7       N        0.11780    0.17570    0.36640    1.000
    C10      C        0.05560    0.10310    0.41640    1.000
    H1       H        0.23670    0.93290    0.26050    1.000
    H2       H        0.26920    0.06770    0.23800    1.000
    H3       H        0.04100    0.88540    0.25540    1.000
    H4       H        0.92670    0.98570    0.22710    1.000
    H5       H        0.97120    0.17400    0.19520    1.000
    H6       H        0.11760    0.20730    0.20310    1.000
    H7       H        0.24530    0.97880    0.54890    1.000
    H8       H        0.22210    0.88170    0.43810    1.000
    H9       H        0.29780    0.20350    0.38710    1.000
    H10      H        0.28780    0.16620    0.51820    1.000
    H11      H        0.95700    0.12010    0.37420    1.000
    H12      H        0.09270    0.11790    0.51080    1.000
    C11      C        0.62140    0.31480    0.36140    1.000
    C12      C        0.74610    0.34620    0.42550    1.000
    N8       N        0.84660    0.37700    0.46950    1.000
    C13      C        0.55360    0.36570    0.25060    1.000
    N9       N        0.50480    0.41230    0.16280    1.000
    C14      C        0.56880    0.23110    0.39790    1.000
    N10      N        0.52490    0.16230    0.42820    1.000
    N11      N        0.91230    0.53990    0.28660    1.000
    C15      C        0.77760    0.51670    0.22470    1.000
    C16      C        0.97460    0.46920    0.23080    1.000
    C17      C        0.93060    0.65550    0.26180    1.000
    N12      N        0.72190    0.53620    0.09410    1.000
    C18      C        0.79130    0.46530    0.04570    1.000
    C19      C        0.74830    0.65110    0.07600    1.000
    N13      N        0.92530    0.48940    0.10250    1.000
    N14      N        0.88220    0.67570    0.13360    1.000
    C20      C        0.94440    0.60310    0.08360    1.000
    H13      H        0.76330    0.43290    0.23950    1.000
    H14      H        0.73080    0.56770    0.26200    1.000
    H15      H        0.95900    0.38540    0.24460    1.000
    H16      H        0.07330    0.48570    0.27290    1.000
    H17      H        0.02880    0.67400    0.30480    1.000
    H18      H        0.88240    0.70730    0.29690    1.000
    H19      H        0.75470    0.47880    0.95110    1.000
    H20      H        0.77790    0.38170    0.06190    1.000
    H21      H        0.70220    0.70350    0.11290    1.000
    H22      H        0.71220    0.66620    0.98180    1.000
    H23      H        0.04300    0.62010    0.12580    1.000
    H24      H        0.90730    0.61790    0.98920    1.000
    C21      C        0.62140    0.18520    0.86140    1.000
    C22      C        0.74610    0.15380    0.92550    1.000
    N15      N        0.84660    0.12300    0.96950    1.000
    C23      C        0.55360    0.13430    0.75060    1.000
    N16      N        0.50480    0.08770    0.66280    1.000
    C24      C        0.56880    0.26890    0.89790    1.000
    N17      N        0.52490    0.33770    0.92820    1.000
    N18      N        0.91230    0.96010    0.78660    1.000
    C25      C        0.77760    0.98330    0.72470    1.000
    C26      C        0.97460    0.03080    0.73080    1.000
    C27      C        0.93060    0.84450    0.76180    1.000
    N19      N        0.72190    0.96380    0.59410    1.000
    C28      C        0.79130    0.03470    0.54570    1.000
    C29      C        0.74830    0.84890    0.57600    1.000
    N20      N        0.92530    0.01060    0.60250    1.000
    N21      N        0.88220    0.82430    0.63360    1.000
    C30      C        0.94440    0.89690    0.58360    1.000
    H25      H        0.76330    0.06710    0.73950    1.000
    H26      H        0.73080    0.93230    0.76200    1.000
    H27      H        0.95900    0.11460    0.74460    1.000
    H28      H        0.07330    0.01430    0.77290    1.000
    H29      H        0.02880    0.82600    0.80480    1.000
    H30      H        0.88240    0.79270    0.79690    1.000
    H31      H        0.75470    0.02120    0.45110    1.000
    H32      H        0.77790    0.11830    0.56190    1.000
    H33      H        0.70220    0.79650    0.61290    1.000
    H34      H        0.71220    0.83380    0.48180    1.000
    H35      H        0.04300    0.87990    0.62580    1.000
    H36      H        0.90730    0.88210    0.48920    1.000
    C31      C        0.37860    0.68520    0.63860    1.000
    C32      C        0.25390    0.65380    0.57450    1.000
    N22      N        0.15340    0.62300    0.53050    1.000
    C33      C        0.44640    0.63430    0.74940    1.000
    N23      N        0.49520    0.58770    0.83720    1.000
    C34      C        0.43120    0.76890    0.60210    1.000
    N24      N        0.47510    0.83770    0.57180    1.000
    N25      N        0.08770    0.46010    0.71340    1.000
    C35      C        0.22240    0.48330    0.77530    1.000
    C36      C        0.02540    0.53080    0.76920    1.000
    C37      C        0.06940    0.34450    0.73820    1.000
    N26      N        0.27810    0.46380    0.90590    1.000
    C38      C        0.20870    0.53470    0.95430    1.000
    C39      C        0.25170    0.34890    0.92400    1.000
    N27      N        0.07470    0.51060    0.89750    1.000
    N28      N        0.11780    0.32430    0.86640    1.000
    C40      C        0.05560    0.39690    0.91640    1.000
    H37      H        0.23670    0.56710    0.76050    1.000
    H38      H        0.26920    0.43230    0.73800    1.000
    H39      H        0.04100    0.61460    0.75540    1.000
    H40      H        0.92670    0.51430    0.72710    1.000
    H41      H        0.97120    0.32600    0.69520    1.000
    H42      H        0.11760    0.29270    0.70310    1.000
    H43      H        0.24530    0.52120    0.04890    1.000
    H44      H        0.22210    0.61830    0.93810    1.000
    H45      H        0.29780    0.29650    0.88710    1.000
    H46      H        0.28780    0.33380    0.01820    1.000
    H47      H        0.95700    0.37990    0.87420    1.000
    H48      H        0.09270    0.38210    0.01080    1.000
    Cd1      Cd       0.50000    0.00000    0.50000    1.000
    Cd2      Cd       0.50000    0.50000    0.00000    1.000
    Cd3      Cd       0.00000    0.00000    0.00000    1.000
    Cd4      Cd       0.00000    0.50000    0.50000    1.000
