# CIF file generated by openbabel 3.1.0, see https://openbabel.org
data_I
_chemical_name_common 'image0'
_cell_length_a 15.286
_cell_length_b 32.626
_cell_length_c 10.053
_cell_angle_alpha 90
_cell_angle_beta 107.2
_cell_angle_gamma 90
_space_group_name_H-M_alt 'P 1'
_space_group_name_Hall 'P 1'
loop_
    _symmetry_equiv_pos_as_xyz
    x,y,z
loop_
    _atom_site_label
    _atom_site_type_symbol
    _atom_site_fract_x
    _atom_site_fract_y
    _atom_site_fract_z
    _atom_site_occupancy
    Cu1      Cu       0.40849    0.71624    0.26962    1.000
    Cu2      Cu       0.48204    0.71743    0.01209    1.000
    Cu3      Cu       0.33414    0.77476    0.03323    1.000
    O1       O        0.37090    0.71792    0.06890    1.000
    H1       H        0.33070    0.70040    0.02880    1.000
    O2       O        0.45640    0.65713    0.26030    1.000
    O3       O        0.51830    0.66253    0.08160    1.000
    O4       O        0.28330    0.72763    0.28180    1.000
    O5       O        0.22530    0.76676    0.09230    1.000
    O6       O        0.44480    0.72434    0.46790    1.000
    H2       H        0.48500    0.70730    0.51190    1.000
    O7       O        0.96510    0.84790    0.11680    1.000
    O8       O        0.84310    0.80830    0.09180    1.000
    O9       O        0.98560    0.81170    0.46990    1.000
    O10      O        0.87780    0.84210    0.51640    1.000
    O11      O        0.75980    0.50910    0.20740    1.000
    O12      O        0.74840    0.56090    0.08200    1.000
    O13      O        0.73230    0.51310    0.48360    1.000
    O14      O        0.72030    0.46980    0.63560    1.000
    O15      O        0.58800    0.77811    0.44950    1.000
    O16      O        0.53430    0.73909    0.25950    1.000
    O17      O        0.60740    0.31922    0.23720    1.000
    O18      O        0.67480    0.33306    0.45880    1.000
    C1       C        0.49850    0.64355    0.17880    1.000
    C2       C        0.52710    0.59985    0.19610    1.000
    C3       C        0.48150    0.57210    0.25670    1.000
    H3       H        0.43080    0.58060    0.28260    1.000
    C4       C        0.51030    0.53280    0.27830    1.000
    H4       H        0.47920    0.51510    0.32090    1.000
    C5       C        0.58320    0.51800    0.24010    1.000
    C6       C        0.62670    0.54590    0.17640    1.000
    C7       C        0.59950    0.58560    0.15390    1.000
    H5       H        0.62990    0.60330    0.10990    1.000
    C8       C        0.60990    0.47370    0.26550    1.000
    C9       C        0.65210    0.45760    0.39130    1.000
    C10      C        0.66540    0.41580    0.41450    1.000
    H6       H        0.69690    0.40630    0.50300    1.000
    C11      C        0.63260    0.38851    0.30840    1.000
    C12      C        0.58560    0.40410    0.18140    1.000
    H7       H        0.56020    0.38630    0.10780    1.000
    C13      C        0.57510    0.44580    0.16050    1.000
    H8       H        0.54350    0.45540    0.07230    1.000
    C14      C        0.63940    0.34370    0.33430    1.000
    C15      C        0.21910    0.74732    0.19660    1.000
    C16      C        0.12790    0.74840    0.22310    1.000
    C17      C        0.07110    0.78100    0.17120    1.000
    H9       H        0.09020    0.80180    0.12330    1.000
    C18      C        0.98530    0.78250    0.19050    1.000
    C19      C        0.95720    0.75280    0.27240    1.000
    C20      C        0.01880    0.71970    0.32120    1.000
    H10      H        0.00290    0.69890    0.37300    1.000
    C21      C        0.09990    0.71800    0.29360    1.000
    H11      H        0.13760    0.69540    0.32360    1.000
    C22      C        0.86650    0.75380    0.30230    1.000
    C23      C        0.80690    0.72271    0.25300    1.000
    H12      H        0.82570    0.70020    0.21160    1.000
    C24      C        0.71780    0.72370    0.26290    1.000
    H13      H        0.67620    0.70340    0.22060    1.000
    C25      C        0.69140    0.75490    0.33530    1.000
    C26      C        0.75610    0.78450    0.39850    1.000
    H14      H        0.74200    0.80440    0.45530    1.000
    C27      C        0.84110    0.78440    0.37660    1.000
    C28      C        0.59710    0.75761    0.34870    1.000
    N1       N        0.71030    0.53460    0.13140    1.000
    N2       N        0.92520    0.81610    0.12710    1.000
    N3       N        0.90480    0.81530    0.45510    1.000
    N4       N        0.69210    0.48400    0.51860    1.000
    O19      O        0.94520    0.83810    0.04240    1.000
    O20      O        0.87060    0.83320    0.17560    1.000
    O21      O        0.73140    0.49930    0.12100    1.000
    O22      O        0.69100    0.54300    0.00720    1.000
    O23      O        0.69430    0.52070    0.50350    1.000
    O24      O        0.66890    0.47250    0.61920    1.000
    Cu4      Cu       0.59151    0.21624    0.23038    1.000
    Cu5      Cu       0.51796    0.21743    0.48791    1.000
    Cu6      Cu       0.66586    0.27476    0.46677    1.000
    O25      O        0.62910    0.21792    0.43110    1.000
    H15      H        0.66930    0.20040    0.47120    1.000
    O26      O        0.54360    0.15713    0.23970    1.000
    O27      O        0.48170    0.16253    0.41840    1.000
    O28      O        0.71670    0.22763    0.21820    1.000
    O29      O        0.77470    0.26676    0.40770    1.000
    O30      O        0.55520    0.22434    0.03210    1.000
    H16      H        0.51500    0.20730    0.98810    1.000
    O31      O        0.03490    0.34790    0.38320    1.000
    O32      O        0.15690    0.30830    0.40820    1.000
    O33      O        0.01440    0.31170    0.03010    1.000
    O34      O        0.12220    0.34210    0.98360    1.000
    O35      O        0.24020    0.00910    0.29260    1.000
    O36      O        0.25160    0.06090    0.41800    1.000
    O37      O        0.26770    0.01310    0.01640    1.000
    O38      O        0.27970    0.96980    0.86440    1.000
    O39      O        0.41200    0.27811    0.05050    1.000
    O40      O        0.46570    0.23909    0.24050    1.000
    O41      O        0.39260    0.81922    0.26280    1.000
    O42      O        0.32520    0.83306    0.04120    1.000
    C29      C        0.50150    0.14355    0.32120    1.000
    C30      C        0.47290    0.09985    0.30390    1.000
    C31      C        0.51850    0.07210    0.24330    1.000
    H17      H        0.56920    0.08060    0.21740    1.000
    C32      C        0.48970    0.03280    0.22170    1.000
    H18      H        0.52080    0.01510    0.17910    1.000
    C33      C        0.41680    0.01800    0.25990    1.000
    C34      C        0.37330    0.04590    0.32360    1.000
    C35      C        0.40050    0.08560    0.34610    1.000
    H19      H        0.37010    0.10330    0.39010    1.000
    C36      C        0.39010    0.97370    0.23450    1.000
    C37      C        0.34790    0.95760    0.10870    1.000
    C38      C        0.33460    0.91580    0.08550    1.000
    H20      H        0.30310    0.90630    0.99700    1.000
    C39      C        0.36740    0.88851    0.19160    1.000
    C40      C        0.41440    0.90410    0.31860    1.000
    H21      H        0.43980    0.88630    0.39220    1.000
    C41      C        0.42490    0.94580    0.33950    1.000
    H22      H        0.45650    0.95540    0.42770    1.000
    C42      C        0.36060    0.84370    0.16570    1.000
    C43      C        0.78090    0.24732    0.30340    1.000
    C44      C        0.87210    0.24840    0.27690    1.000
    C45      C        0.92890    0.28100    0.32880    1.000
    H23      H        0.90980    0.30180    0.37670    1.000
    C46      C        0.01470    0.28250    0.30950    1.000
    C47      C        0.04280    0.25280    0.22760    1.000
    C48      C        0.98120    0.21970    0.17880    1.000
    H24      H        0.99710    0.19890    0.12700    1.000
    C49      C        0.90010    0.21800    0.20640    1.000
    H25      H        0.86240    0.19540    0.17640    1.000
    C50      C        0.13350    0.25380    0.19770    1.000
    C51      C        0.19310    0.22271    0.24700    1.000
    H26      H        0.17430    0.20020    0.28840    1.000
    C52      C        0.28220    0.22370    0.23710    1.000
    H27      H        0.32380    0.20340    0.27940    1.000
    C53      C        0.30860    0.25490    0.16470    1.000
    C54      C        0.24390    0.28450    0.10150    1.000
    H28      H        0.25800    0.30440    0.04470    1.000
    C55      C        0.15890    0.28440    0.12340    1.000
    C56      C        0.40290    0.25761    0.15130    1.000
    N5       N        0.28970    0.03460    0.36860    1.000
    N6       N        0.07480    0.31610    0.37290    1.000
    N7       N        0.09520    0.31530    0.04490    1.000
    N8       N        0.30790    0.98400    0.98140    1.000
    O43      O        0.05480    0.33810    0.45760    1.000
    O44      O        0.12940    0.33320    0.32440    1.000
    O45      O        0.26860    0.99930    0.37900    1.000
    O46      O        0.30900    0.04300    0.49280    1.000
    O47      O        0.30570    0.02070    0.99650    1.000
    O48      O        0.33110    0.97250    0.88080    1.000
    Cu7      Cu       0.59151    0.28376    0.73038    1.000
    Cu8      Cu       0.51796    0.28257    0.98791    1.000
    Cu9      Cu       0.66586    0.22524    0.96677    1.000
    O49      O        0.62910    0.28208    0.93110    1.000
    H29      H        0.66930    0.29960    0.97120    1.000
    O50      O        0.54360    0.34287    0.73970    1.000
    O51      O        0.48170    0.33747    0.91840    1.000
    O52      O        0.71670    0.27237    0.71820    1.000
    O53      O        0.77470    0.23324    0.90770    1.000
    O54      O        0.55520    0.27566    0.53210    1.000
    H30      H        0.51500    0.29270    0.48810    1.000
    O55      O        0.03490    0.15210    0.88320    1.000
    O56      O        0.15690    0.19170    0.90820    1.000
    O57      O        0.01440    0.18830    0.53010    1.000
    O58      O        0.12220    0.15790    0.48360    1.000
    O59      O        0.24020    0.49090    0.79260    1.000
    O60      O        0.25160    0.43910    0.91800    1.000
    O61      O        0.26770    0.48690    0.51640    1.000
    O62      O        0.27970    0.53020    0.36440    1.000
    O63      O        0.41200    0.22189    0.55050    1.000
    O64      O        0.46570    0.26091    0.74050    1.000
    O65      O        0.39260    0.68078    0.76280    1.000
    O66      O        0.32520    0.66694    0.54120    1.000
    C57      C        0.50150    0.35645    0.82120    1.000
    C58      C        0.47290    0.40015    0.80390    1.000
    C59      C        0.51850    0.42790    0.74330    1.000
    H31      H        0.56920    0.41940    0.71740    1.000
    C60      C        0.48970    0.46720    0.72170    1.000
    H32      H        0.52080    0.48490    0.67910    1.000
    C61      C        0.41680    0.48200    0.75990    1.000
    C62      C        0.37330    0.45410    0.82360    1.000
    C63      C        0.40050    0.41440    0.84610    1.000
    H33      H        0.37010    0.39670    0.89010    1.000
    C64      C        0.39010    0.52630    0.73450    1.000
    C65      C        0.34790    0.54240    0.60870    1.000
    C66      C        0.33460    0.58420    0.58550    1.000
    H34      H        0.30310    0.59370    0.49700    1.000
    C67      C        0.36740    0.61149    0.69160    1.000
    C68      C        0.41440    0.59590    0.81860    1.000
    H35      H        0.43980    0.61370    0.89220    1.000
    C69      C        0.42490    0.55420    0.83950    1.000
    H36      H        0.45650    0.54460    0.92770    1.000
    C70      C        0.36060    0.65630    0.66570    1.000
    C71      C        0.78090    0.25268    0.80340    1.000
    C72      C        0.87210    0.25160    0.77690    1.000
    C73      C        0.92890    0.21900    0.82880    1.000
    H37      H        0.90980    0.19820    0.87670    1.000
    C74      C        0.01470    0.21750    0.80950    1.000
    C75      C        0.04280    0.24720    0.72760    1.000
    C76      C        0.98120    0.28030    0.67880    1.000
    H38      H        0.99710    0.30110    0.62700    1.000
    C77      C        0.90010    0.28200    0.70640    1.000
    H39      H        0.86240    0.30460    0.67640    1.000
    C78      C        0.13350    0.24620    0.69770    1.000
    C79      C        0.19310    0.27729    0.74700    1.000
    H40      H        0.17430    0.29980    0.78840    1.000
    C80      C        0.28220    0.27630    0.73710    1.000
    H41      H        0.32380    0.29660    0.77940    1.000
    C81      C        0.30860    0.24510    0.66470    1.000
    C82      C        0.24390    0.21550    0.60150    1.000
    H42      H        0.25800    0.19560    0.54470    1.000
    C83      C        0.15890    0.21560    0.62340    1.000
    C84      C        0.40290    0.24239    0.65130    1.000
    N9       N        0.28970    0.46540    0.86860    1.000
    N10      N        0.07480    0.18390    0.87290    1.000
    N11      N        0.09520    0.18470    0.54490    1.000
    N12      N        0.30790    0.51600    0.48140    1.000
    O67      O        0.05480    0.16190    0.95760    1.000
    O68      O        0.12940    0.16680    0.82440    1.000
    O69      O        0.26860    0.50070    0.87900    1.000
    O70      O        0.30900    0.45700    0.99280    1.000
    O71      O        0.30570    0.47930    0.49650    1.000
    O72      O        0.33110    0.52750    0.38080    1.000
    Cu10     Cu       0.40849    0.78376    0.76962    1.000
    Cu11     Cu       0.48204    0.78257    0.51209    1.000
    Cu12     Cu       0.33414    0.72524    0.53323    1.000
    O73      O        0.37090    0.78208    0.56890    1.000
    H43      H        0.33070    0.79960    0.52880    1.000
    O74      O        0.45640    0.84287    0.76030    1.000
    O75      O        0.51830    0.83747    0.58160    1.000
    O76      O        0.28330    0.77237    0.78180    1.000
    O77      O        0.22530    0.73324    0.59230    1.000
    O78      O        0.44480    0.77566    0.96790    1.000
    H44      H        0.48500    0.79270    0.01190    1.000
    O79      O        0.96510    0.65210    0.61680    1.000
    O80      O        0.84310    0.69170    0.59180    1.000
    O81      O        0.98560    0.68830    0.96990    1.000
    O82      O        0.87780    0.65790    0.01640    1.000
    O83      O        0.75980    0.99090    0.70740    1.000
    O84      O        0.74840    0.93910    0.58200    1.000
    O85      O        0.73230    0.98690    0.98360    1.000
    O86      O        0.72030    0.03020    0.13560    1.000
    O87      O        0.58800    0.72189    0.94950    1.000
    O88      O        0.53430    0.76091    0.75950    1.000
    O89      O        0.60740    0.18078    0.73720    1.000
    O90      O        0.67480    0.16694    0.95880    1.000
    C85      C        0.49850    0.85645    0.67880    1.000
    C86      C        0.52710    0.90015    0.69610    1.000
    C87      C        0.48150    0.92790    0.75670    1.000
    H45      H        0.43080    0.91940    0.78260    1.000
    C88      C        0.51030    0.96720    0.77830    1.000
    H46      H        0.47920    0.98490    0.82090    1.000
    C89      C        0.58320    0.98200    0.74010    1.000
    C90      C        0.62670    0.95410    0.67640    1.000
    C91      C        0.59950    0.91440    0.65390    1.000
    H47      H        0.62990    0.89670    0.60990    1.000
    C92      C        0.60990    0.02630    0.76550    1.000
    C93      C        0.65210    0.04240    0.89130    1.000
    C94      C        0.66540    0.08420    0.91450    1.000
    H48      H        0.69690    0.09370    0.00300    1.000
    C95      C        0.63260    0.11149    0.80840    1.000
    C96      C        0.58560    0.09590    0.68140    1.000
    H49      H        0.56020    0.11370    0.60780    1.000
    C97      C        0.57510    0.05420    0.66050    1.000
    H50      H        0.54350    0.04460    0.57230    1.000
    C98      C        0.63940    0.15630    0.83430    1.000
    C99      C        0.21910    0.75268    0.69660    1.000
    C100     C        0.12790    0.75160    0.72310    1.000
    C101     C        0.07110    0.71900    0.67120    1.000
    H51      H        0.09020    0.69820    0.62330    1.000
    C102     C        0.98530    0.71750    0.69050    1.000
    C103     C        0.95720    0.74720    0.77240    1.000
    C104     C        0.01880    0.78030    0.82120    1.000
    H52      H        0.00290    0.80110    0.87300    1.000
    C105     C        0.09990    0.78200    0.79360    1.000
    H53      H        0.13760    0.80460    0.82360    1.000
    C106     C        0.86650    0.74620    0.80230    1.000
    C107     C        0.80690    0.77729    0.75300    1.000
    H54      H        0.82570    0.79980    0.71160    1.000
    C108     C        0.71780    0.77630    0.76290    1.000
    H55      H        0.67620    0.79660    0.72060    1.000
    C109     C        0.69140    0.74510    0.83530    1.000
    C110     C        0.75610    0.71550    0.89850    1.000
    H56      H        0.74200    0.69560    0.95530    1.000
    C111     C        0.84110    0.71560    0.87660    1.000
    C112     C        0.59710    0.74239    0.84870    1.000
    N13      N        0.71030    0.96540    0.63140    1.000
    N14      N        0.92520    0.68390    0.62710    1.000
    N15      N        0.90480    0.68470    0.95510    1.000
    N16      N        0.69210    0.01600    0.01860    1.000
    O91      O        0.94520    0.66190    0.54240    1.000
    O92      O        0.87060    0.66680    0.67560    1.000
    O93      O        0.73140    0.00070    0.62100    1.000
    O94      O        0.69100    0.95700    0.50720    1.000
    O95      O        0.69430    0.97930    0.00350    1.000
    O96      O        0.66890    0.02750    0.11920    1.000
