# CIF file generated by openbabel 3.1.0, see https://openbabel.org
data_I
_chemical_name_common 'image0'
_cell_length_a 24.481
_cell_length_b 9.3535
_cell_length_c 10.3669
_cell_angle_alpha 90
_cell_angle_beta 97.336
_cell_angle_gamma 90
_space_group_name_H-M_alt 'P 1'
_space_group_name_Hall 'P 1'
loop_
    _symmetry_equiv_pos_as_xyz
    x,y,z
loop_
    _atom_site_label
    _atom_site_type_symbol
    _atom_site_fract_x
    _atom_site_fract_y
    _atom_site_fract_z
    _atom_site_occupancy
    C1       C        0.08650    0.92920    0.52010    1.000
    C2       C        0.14640    0.90380    0.56560    1.000
    C3       C        0.17790    0.82150    0.49210    1.000
    H1       H        0.16250    0.78420    0.41250    1.000
    C4       C        0.23230    0.79530    0.53800    1.000
    C5       C        0.25750    0.85230    0.64880    1.000
    H2       H        0.29470    0.83620    0.67560    1.000
    C6       C        0.22780    0.93170    0.71800    1.000
    H3       H        0.24480    0.96860    0.79630    1.000
    N1       N        0.17160    0.96430    0.68110    1.000
    O1       O        0.05800    0.97800    0.59950    1.000
    O2       O        0.07050    0.90400    0.40510    1.000
    O3       O        0.96940    0.74530    0.31710    1.000
    O4       O        0.97170    0.53000    0.24030    1.000
    C7       C        0.58650    0.42920    0.52010    1.000
    C8       C        0.64640    0.40380    0.56560    1.000
    C9       C        0.67790    0.32150    0.49210    1.000
    H4       H        0.66250    0.28420    0.41250    1.000
    C10      C        0.73230    0.29530    0.53800    1.000
    C11      C        0.75750    0.35230    0.64880    1.000
    H5       H        0.79470    0.33620    0.67560    1.000
    C12      C        0.72780    0.43170    0.71800    1.000
    H6       H        0.74480    0.46860    0.79630    1.000
    N2       N        0.67160    0.46430    0.68110    1.000
    O5       O        0.55800    0.47800    0.59950    1.000
    O6       O        0.57050    0.40400    0.40510    1.000
    O7       O        0.46940    0.24530    0.31710    1.000
    O8       O        0.47170    0.03000    0.24030    1.000
    C13      C        0.91350    0.92920    0.97990    1.000
    C14      C        0.85360    0.90380    0.93440    1.000
    C15      C        0.82210    0.82150    0.00790    1.000
    H7       H        0.83750    0.78420    0.08750    1.000
    C16      C        0.76770    0.79530    0.96200    1.000
    C17      C        0.74250    0.85230    0.85120    1.000
    H8       H        0.70530    0.83620    0.82440    1.000
    C18      C        0.77220    0.93170    0.78200    1.000
    H9       H        0.75520    0.96860    0.70370    1.000
    N3       N        0.82840    0.96430    0.81890    1.000
    O9       O        0.94200    0.97800    0.90050    1.000
    O10      O        0.92950    0.90400    0.09490    1.000
    O11      O        0.03060    0.74530    0.18290    1.000
    O12      O        0.02830    0.53000    0.25970    1.000
    C19      C        0.41350    0.42920    0.97990    1.000
    C20      C        0.35360    0.40380    0.93440    1.000
    C21      C        0.32210    0.32150    0.00790    1.000
    H10      H        0.33750    0.28420    0.08750    1.000
    C22      C        0.26770    0.29530    0.96200    1.000
    C23      C        0.24250    0.35230    0.85120    1.000
    H11      H        0.20530    0.33620    0.82440    1.000
    C24      C        0.27220    0.43170    0.78200    1.000
    H12      H        0.25520    0.46860    0.70370    1.000
    N4       N        0.32840    0.46430    0.81890    1.000
    O13      O        0.44200    0.47800    0.90050    1.000
    O14      O        0.42950    0.40400    0.09490    1.000
    O15      O        0.53060    0.24530    0.18290    1.000
    O16      O        0.52830    0.03000    0.25970    1.000
    C25      C        0.91350    0.07080    0.47990    1.000
    C26      C        0.85360    0.09620    0.43440    1.000
    C27      C        0.82210    0.17850    0.50790    1.000
    H13      H        0.83750    0.21580    0.58750    1.000
    C28      C        0.76770    0.20470    0.46200    1.000
    C29      C        0.74250    0.14770    0.35120    1.000
    H14      H        0.70530    0.16380    0.32440    1.000
    C30      C        0.77220    0.06830    0.28200    1.000
    H15      H        0.75520    0.03140    0.20370    1.000
    N5       N        0.82840    0.03570    0.31890    1.000
    O17      O        0.94200    0.02200    0.40050    1.000
    O18      O        0.92950    0.09600    0.59490    1.000
    O19      O        0.03060    0.25470    0.68290    1.000
    O20      O        0.02830    0.47000    0.75970    1.000
    C31      C        0.41350    0.57080    0.47990    1.000
    C32      C        0.35360    0.59620    0.43440    1.000
    C33      C        0.32210    0.67850    0.50790    1.000
    H16      H        0.33750    0.71580    0.58750    1.000
    C34      C        0.26770    0.70470    0.46200    1.000
    C35      C        0.24250    0.64770    0.35120    1.000
    H17      H        0.20530    0.66380    0.32440    1.000
    C36      C        0.27220    0.56830    0.28200    1.000
    H18      H        0.25520    0.53140    0.20370    1.000
    N6       N        0.32840    0.53570    0.31890    1.000
    O21      O        0.44200    0.52200    0.40050    1.000
    O22      O        0.42950    0.59600    0.59490    1.000
    O23      O        0.53060    0.75470    0.68290    1.000
    O24      O        0.52830    0.97000    0.75970    1.000
    C37      C        0.08650    0.07080    0.02010    1.000
    C38      C        0.14640    0.09620    0.06560    1.000
    C39      C        0.17790    0.17850    0.99210    1.000
    H19      H        0.16250    0.21580    0.91250    1.000
    C40      C        0.23230    0.20470    0.03800    1.000
    C41      C        0.25750    0.14770    0.14880    1.000
    H20      H        0.29470    0.16380    0.17560    1.000
    C42      C        0.22780    0.06830    0.21800    1.000
    H21      H        0.24480    0.03140    0.29630    1.000
    N7       N        0.17160    0.03570    0.18110    1.000
    O25      O        0.05800    0.02200    0.09950    1.000
    O26      O        0.07050    0.09600    0.90510    1.000
    O27      O        0.96940    0.25470    0.81710    1.000
    O28      O        0.97170    0.47000    0.74030    1.000
    C43      C        0.58650    0.57080    0.02010    1.000
    C44      C        0.64640    0.59620    0.06560    1.000
    C45      C        0.67790    0.67850    0.99210    1.000
    H22      H        0.66250    0.71580    0.91250    1.000
    C46      C        0.73230    0.70470    0.03800    1.000
    C47      C        0.75750    0.64770    0.14880    1.000
    H23      H        0.79470    0.66380    0.17560    1.000
    C48      C        0.72780    0.56830    0.21800    1.000
    H24      H        0.74480    0.53140    0.29630    1.000
    N8       N        0.67160    0.53570    0.18110    1.000
    O29      O        0.55800    0.52200    0.09950    1.000
    O30      O        0.57050    0.59600    0.90510    1.000
    O31      O        0.46940    0.75470    0.81710    1.000
    O32      O        0.47170    0.97000    0.74030    1.000
    Tb1      Tb       0.00000    0.98673    0.25000    1.000
    N9       N        0.00000    0.68700    0.25000    1.000
    Tb2      Tb       0.50000    0.48673    0.25000    1.000
    N10      N        0.50000    0.18700    0.25000    1.000
    Tb3      Tb       0.00000    0.01327    0.75000    1.000
    N11      N        0.00000    0.31300    0.75000    1.000
    Tb4      Tb       0.50000    0.51327    0.75000    1.000
    N12      N        0.50000    0.81300    0.75000    1.000
