# CIF file generated by openbabel 3.1.0, see https://openbabel.org
data_I
_chemical_name_common 'image0'
_cell_length_a 40.592
_cell_length_b 16.616
_cell_length_c 12.998
_cell_angle_alpha 90
_cell_angle_beta 98.145
_cell_angle_gamma 90
_space_group_name_H-M_alt 'P 1'
_space_group_name_Hall 'P 1'
loop_
    _symmetry_equiv_pos_as_xyz
    x,y,z
loop_
    _atom_site_label
    _atom_site_type_symbol
    _atom_site_fract_x
    _atom_site_fract_y
    _atom_site_fract_z
    _atom_site_occupancy
    Sr1      Sr       0.76387    0.40463    0.13339    1.000
    Sr2      Sr       0.74079    0.39141    0.82957    1.000
    O1       O        0.68086    0.35410    0.85720    1.000
    O2       O        0.27066    0.14220    0.40090    1.000
    O3       O        0.27182    0.01810    0.33550    1.000
    O4       O        0.82047    0.34890    0.11300    1.000
    O5       O        0.78440    0.33620    0.96930    1.000
    O6       O        0.21602    0.00770    0.48890    1.000
    O7       O        0.21627    0.14150    0.45920    1.000
    C1       C        0.65989    0.31500    0.01060    1.000
    C2       C        0.66736    0.29220    0.11480    1.000
    H1       H        0.68890    0.29770    0.14930    1.000
    C3       C        0.64257    0.26150    0.16660    1.000
    H2       H        0.64770    0.24660    0.23600    1.000
    C4       C        0.61020    0.25260    0.11640    1.000
    C5       C        0.60331    0.27380    0.01110    1.000
    H3       H        0.58190    0.26730    0.97590    1.000
    C6       C        0.62791    0.30400    0.95930    1.000
    H4       H        0.62300    0.31720    0.88930    1.000
    C7       C        0.58231    0.22350    0.17110    1.000
    C8       C        0.56964    0.14510    0.15310    1.000
    C9       C        0.53964    0.12130    0.19220    1.000
    C10      C        0.52284    0.17680    0.24860    1.000
    C11      C        0.53693    0.25300    0.27320    1.000
    C12      C        0.56687    0.27650    0.23520    1.000
    C13      C        0.58019    0.35420    0.26280    1.000
    H5       H        0.59970    0.36990    0.23890    1.000
    C14      C        0.56556    0.40520    0.32210    1.000
    H6       H        0.57470    0.45580    0.33770    1.000
    C15      C        0.53602    0.38200    0.36080    1.000
    H7       H        0.52610    0.41670    0.40330    1.000
    C16      C        0.52226    0.30840    0.33560    1.000
    H8       H        0.50260    0.29440    0.36020    1.000
    C17      C        0.52750    0.04180    0.17010    1.000
    H9       H        0.50780    0.02580    0.19300    1.000
    C18      C        0.54410    0.98860    0.11580    1.000
    H10      H        0.53560    0.93710    0.10210    1.000
    C19      C        0.57388    0.01110    0.08070    1.000
    H11      H        0.58540    0.97400    0.04590    1.000
    C20      C        0.58617    0.08770    0.09740    1.000
    H12      H        0.60560    0.10230    0.07190    1.000
    C21      C        0.48937    0.15620    0.27570    1.000
    C22      C        0.46138    0.16340    0.19830    1.000
    C23      C        0.42886    0.14380    0.22130    1.000
    C24      C        0.42465    0.12060    0.32350    1.000
    C25      C        0.45245    0.11330    0.39960    1.000
    C26      C        0.48526    0.13020    0.37620    1.000
    C27      C        0.51295    0.12190    0.45560    1.000
    H13      H        0.53430    0.13070    0.44010    1.000
    C28      C        0.50853    0.10120    0.55500    1.000
    H14      H        0.52680    0.09780    0.60680    1.000
    C29      C        0.47613    0.08490    0.57880    1.000
    H15      H        0.47330    0.07050    0.64610    1.000
    C30      C        0.44902    0.09010    0.50380    1.000
    H16      H        0.42800    0.07840    0.52050    1.000
    C31      C        0.40093    0.14870    0.14010    1.000
    H17      H        0.37990    0.13470    0.15430    1.000
    C32      C        0.40484    0.17360    0.04250    1.000
    H18      H        0.38670    0.17580    0.99030    1.000
    C33      C        0.43721    0.19640    0.02150    1.000
    H19      H        0.43980    0.21560    0.95590    1.000
    C34      C        0.46424    0.19040    0.09590    1.000
    H20      H        0.48510    0.20420    0.07960    1.000
    C35      C        0.39006    0.10810    0.34550    1.000
    C36      C        0.37050    0.17520    0.35800    1.000
    H21      H        0.38000    0.22620    0.35900    1.000
    C37      C        0.33712    0.16770    0.36910    1.000
    H22      H        0.32460    0.21320    0.37930    1.000
    C38      C        0.32223    0.09110    0.36490    1.000
    C39      C        0.34173    0.02400    0.35540    1.000
    H23      H        0.33230    0.97300    0.35420    1.000
    C40      C        0.37535    0.03250    0.34770    1.000
    H24      H        0.38830    0.98670    0.34400    1.000
    C41      C        0.28554    0.08230    0.36650    1.000
    C42      C        0.84137    0.30200    0.96360    1.000
    C43      C        0.87378    0.30230    0.01400    1.000
    H25      H        0.87840    0.32050    0.08220    1.000
    C44      C        0.89933    0.27540    0.96280    1.000
    H26      H        0.92110    0.27680    0.99660    1.000
    C45      C        0.89307    0.24640    0.86210    1.000
    C46      C        0.86051    0.24550    0.81230    1.000
    H27      H        0.85590    0.22630    0.74460    1.000
    C47      C        0.83460    0.27290    0.86260    1.000
    H28      H        0.81280    0.27180    0.82870    1.000
    C48      C        0.92157    0.21810    0.81200    1.000
    C49      C        0.93429    0.13940    0.83340    1.000
    C50      C        0.96477    0.11570    0.79900    1.000
    C51      C        0.98141    0.16860    0.74010    1.000
    C52      C        0.96735    0.24350    0.71140    1.000
    C53      C        0.93710    0.26950    0.74880    1.000
    C54      C        0.92401    0.34730    0.71980    1.000
    H29      H        0.90500    0.36470    0.74540    1.000
    C55      C        0.93825    0.39590    0.65680    1.000
    H30      H        0.92920    0.44630    0.63910    1.000
    C56      C        0.96709    0.37010    0.61770    1.000
    H31      H        0.97630    0.40320    0.57170    1.000
    C57      C        0.98183    0.29850    0.64500    1.000
    H32      H        0.00150    0.28470    0.62050    1.000
    C58      C        0.91680    0.08340    0.89040    1.000
    H33      H        0.89700    0.09850    0.91310    1.000
    C59      C        0.92937    0.00810    0.91110    1.000
    H34      H        0.91750    0.97180    0.94620    1.000
    C60      C        0.95961    0.98410    0.88090    1.000
    H35      H        0.96790    0.93270    0.89730    1.000
    C61      C        0.97720    0.03640    0.82680    1.000
    H36      H        0.99740    0.02020    0.80790    1.000
    C62      C        0.01445    0.14680    0.71110    1.000
    C63      C        0.04363    0.15460    0.78330    1.000
    C64      C        0.07556    0.13730    0.75500    1.000
    C65      C        0.07803    0.11590    0.64990    1.000
    C66      C        0.04886    0.11010    0.57610    1.000
    C67      C        0.01681    0.12270    0.60680    1.000
    C68      C        0.98794    0.11330    0.53190    1.000
    H37      H        0.96690    0.11770    0.55190    1.000
    C69      C        0.99104    0.09810    0.43170    1.000
    H38      H        0.97200    0.09350    0.38320    1.000
    C70      C        0.02248    0.08880    0.39870    1.000
    H39      H        0.02410    0.08000    0.32900    1.000
    C71      C        0.05032    0.09290    0.47010    1.000
    H40      H        0.07090    0.08420    0.44870    1.000
    C72      C        0.04252    0.18110    0.88570    1.000
    H41      H        0.02200    0.19400    0.90550    1.000
    C73      C        0.07041    0.18850    0.95660    1.000
    H42      H        0.06890    0.20670    0.02350    1.000
    C74      C        0.10191    0.16830    0.92740    1.000
    H43      H        0.12090    0.17160    0.97630    1.000
    C75      C        0.10443    0.14440    0.83010    1.000
    H44      H        0.12520    0.13250    0.81180    1.000
    C76      C        0.11102    0.10490    0.61530    1.000
    C77      C        0.12324    0.02820    0.59460    1.000
    H45      H        0.11090    0.98270    0.60570    1.000
    C78      C        0.15371    0.01940    0.55750    1.000
    H46      H        0.16180    0.96830    0.54610    1.000
    C79      C        0.17207    0.08700    0.53740    1.000
    C80      C        0.16051    0.16200    0.55940    1.000
    H47      H        0.17270    0.20760    0.54730    1.000
    C81      C        0.13088    0.17010    0.59930    1.000
    H48      H        0.12400    0.22120    0.61600    1.000
    C82      C        0.20386    0.07680    0.49210    1.000
    O8       O        0.71425    0.36850    0.00580    1.000
    C83      C        0.68682    0.34870    0.95400    1.000
    C84      C        0.81379    0.33040    0.01900    1.000
    Cl1      Cl       0.74879    0.27038    0.25570    1.000
    Sr3      Sr       0.23613    0.90463    0.36661    1.000
    Sr4      Sr       0.25921    0.89141    0.67043    1.000
    O9       O        0.31914    0.85410    0.64280    1.000
    O10      O        0.72934    0.64220    0.09910    1.000
    O11      O        0.72818    0.51810    0.16450    1.000
    O12      O        0.17953    0.84890    0.38700    1.000
    O13      O        0.21560    0.83620    0.53070    1.000
    O14      O        0.78398    0.50770    0.01110    1.000
    O15      O        0.78373    0.64150    0.04080    1.000
    C85      C        0.34011    0.81500    0.48940    1.000
    C86      C        0.33264    0.79220    0.38520    1.000
    H49      H        0.31110    0.79770    0.35070    1.000
    C87      C        0.35743    0.76150    0.33340    1.000
    H50      H        0.35230    0.74660    0.26400    1.000
    C88      C        0.38980    0.75260    0.38360    1.000
    C89      C        0.39669    0.77380    0.48890    1.000
    H51      H        0.41810    0.76730    0.52410    1.000
    C90      C        0.37209    0.80400    0.54070    1.000
    H52      H        0.37700    0.81720    0.61070    1.000
    C91      C        0.41769    0.72350    0.32890    1.000
    C92      C        0.43036    0.64510    0.34690    1.000
    C93      C        0.46036    0.62130    0.30780    1.000
    C94      C        0.47716    0.67680    0.25140    1.000
    C95      C        0.46307    0.75300    0.22680    1.000
    C96      C        0.43313    0.77650    0.26480    1.000
    C97      C        0.41981    0.85420    0.23720    1.000
    H53      H        0.40030    0.86990    0.26110    1.000
    C98      C        0.43444    0.90520    0.17790    1.000
    H54      H        0.42530    0.95580    0.16230    1.000
    C99      C        0.46398    0.88200    0.13920    1.000
    H55      H        0.47390    0.91670    0.09670    1.000
    C100     C        0.47774    0.80840    0.16440    1.000
    H56      H        0.49740    0.79440    0.13980    1.000
    C101     C        0.47250    0.54180    0.32990    1.000
    H57      H        0.49220    0.52580    0.30700    1.000
    C102     C        0.45590    0.48860    0.38420    1.000
    H58      H        0.46440    0.43710    0.39790    1.000
    C103     C        0.42612    0.51110    0.41930    1.000
    H59      H        0.41460    0.47400    0.45410    1.000
    C104     C        0.41383    0.58770    0.40260    1.000
    H60      H        0.39440    0.60230    0.42810    1.000
    C105     C        0.51063    0.65620    0.22430    1.000
    C106     C        0.53862    0.66340    0.30170    1.000
    C107     C        0.57114    0.64380    0.27870    1.000
    C108     C        0.57535    0.62060    0.17650    1.000
    C109     C        0.54755    0.61330    0.10040    1.000
    C110     C        0.51474    0.63020    0.12380    1.000
    C111     C        0.48705    0.62190    0.04440    1.000
    H61      H        0.46570    0.63070    0.05990    1.000
    C112     C        0.49147    0.60120    0.94500    1.000
    H62      H        0.47320    0.59780    0.89320    1.000
    C113     C        0.52387    0.58490    0.92120    1.000
    H63      H        0.52670    0.57050    0.85390    1.000
    C114     C        0.55098    0.59010    0.99620    1.000
    H64      H        0.57200    0.57840    0.97950    1.000
    C115     C        0.59907    0.64870    0.35990    1.000
    H65      H        0.62010    0.63470    0.34570    1.000
    C116     C        0.59516    0.67360    0.45750    1.000
    H66      H        0.61330    0.67580    0.50970    1.000
    C117     C        0.56279    0.69640    0.47850    1.000
    H67      H        0.56020    0.71560    0.54410    1.000
    C118     C        0.53576    0.69040    0.40410    1.000
    H68      H        0.51490    0.70420    0.42040    1.000
    C119     C        0.60994    0.60810    0.15450    1.000
    C120     C        0.62950    0.67520    0.14200    1.000
    H69      H        0.62000    0.72620    0.14100    1.000
    C121     C        0.66288    0.66770    0.13090    1.000
    H70      H        0.67540    0.71320    0.12070    1.000
    C122     C        0.67777    0.59110    0.13510    1.000
    C123     C        0.65827    0.52400    0.14460    1.000
    H71      H        0.66770    0.47300    0.14580    1.000
    C124     C        0.62465    0.53250    0.15230    1.000
    H72      H        0.61170    0.48670    0.15600    1.000
    C125     C        0.71446    0.58230    0.13350    1.000
    C126     C        0.15863    0.80200    0.53640    1.000
    C127     C        0.12622    0.80230    0.48600    1.000
    H73      H        0.12160    0.82050    0.41780    1.000
    C128     C        0.10067    0.77540    0.53720    1.000
    H74      H        0.07890    0.77680    0.50340    1.000
    C129     C        0.10693    0.74640    0.63790    1.000
    C130     C        0.13949    0.74550    0.68770    1.000
    H75      H        0.14410    0.72630    0.75540    1.000
    C131     C        0.16540    0.77290    0.63740    1.000
    H76      H        0.18720    0.77180    0.67130    1.000
    C132     C        0.07843    0.71810    0.68800    1.000
    C133     C        0.06571    0.63940    0.66660    1.000
    C134     C        0.03523    0.61570    0.70100    1.000
    C135     C        0.01859    0.66860    0.75990    1.000
    C136     C        0.03265    0.74350    0.78860    1.000
    C137     C        0.06290    0.76950    0.75120    1.000
    C138     C        0.07599    0.84730    0.78020    1.000
    H77      H        0.09500    0.86470    0.75460    1.000
    C139     C        0.06175    0.89590    0.84320    1.000
    H78      H        0.07080    0.94630    0.86090    1.000
    C140     C        0.03291    0.87010    0.88230    1.000
    H79      H        0.02370    0.90320    0.92830    1.000
    C141     C        0.01817    0.79850    0.85500    1.000
    H80      H        0.99850    0.78470    0.87950    1.000
    C142     C        0.08320    0.58340    0.60960    1.000
    H81      H        0.10300    0.59850    0.58690    1.000
    C143     C        0.07063    0.50810    0.58890    1.000
    H82      H        0.08250    0.47180    0.55380    1.000
    C144     C        0.04039    0.48410    0.61910    1.000
    H83      H        0.03210    0.43270    0.60270    1.000
    C145     C        0.02280    0.53640    0.67320    1.000
    H84      H        0.00260    0.52020    0.69210    1.000
    C146     C        0.98555    0.64680    0.78890    1.000
    C147     C        0.95637    0.65460    0.71670    1.000
    C148     C        0.92444    0.63730    0.74500    1.000
    C149     C        0.92197    0.61590    0.85010    1.000
    C150     C        0.95114    0.61010    0.92390    1.000
    C151     C        0.98319    0.62270    0.89320    1.000
    C152     C        0.01206    0.61330    0.96810    1.000
    H85      H        0.03310    0.61770    0.94810    1.000
    C153     C        0.00896    0.59810    0.06830    1.000
    H86      H        0.02800    0.59350    0.11680    1.000
    C154     C        0.97752    0.58880    0.10130    1.000
    H87      H        0.97590    0.58000    0.17100    1.000
    C155     C        0.94968    0.59290    0.02990    1.000
    H88      H        0.92910    0.58420    0.05130    1.000
    C156     C        0.95748    0.68110    0.61430    1.000
    H89      H        0.97800    0.69400    0.59450    1.000
    C157     C        0.92959    0.68850    0.54340    1.000
    H90      H        0.93110    0.70670    0.47650    1.000
    C158     C        0.89809    0.66830    0.57260    1.000
    H91      H        0.87910    0.67160    0.52370    1.000
    C159     C        0.89557    0.64440    0.66990    1.000
    H92      H        0.87480    0.63250    0.68820    1.000
    C160     C        0.88898    0.60490    0.88470    1.000
    C161     C        0.87676    0.52820    0.90540    1.000
    H93      H        0.88910    0.48270    0.89430    1.000
    C162     C        0.84629    0.51940    0.94250    1.000
    H94      H        0.83820    0.46830    0.95390    1.000
    C163     C        0.82793    0.58700    0.96260    1.000
    C164     C        0.83949    0.66200    0.94060    1.000
    H95      H        0.82730    0.70760    0.95270    1.000
    C165     C        0.86912    0.67010    0.90070    1.000
    H96      H        0.87600    0.72120    0.88400    1.000
    C166     C        0.79614    0.57680    0.00790    1.000
    O16      O        0.28575    0.86850    0.49420    1.000
    C167     C        0.31318    0.84870    0.54600    1.000
    C168     C        0.18621    0.83040    0.48100    1.000
    Cl2      Cl       0.25121    0.77038    0.24430    1.000
    Sr5      Sr       0.23613    0.59537    0.86661    1.000
    Sr6      Sr       0.25921    0.60859    0.17043    1.000
    O17      O        0.31914    0.64590    0.14280    1.000
    O18      O        0.72934    0.85780    0.59910    1.000
    O19      O        0.72818    0.98190    0.66450    1.000
    O20      O        0.17953    0.65110    0.88700    1.000
    O21      O        0.21560    0.66380    0.03070    1.000
    O22      O        0.78398    0.99230    0.51110    1.000
    O23      O        0.78373    0.85850    0.54080    1.000
    C169     C        0.34011    0.68500    0.98940    1.000
    C170     C        0.33264    0.70780    0.88520    1.000
    H97      H        0.31110    0.70230    0.85070    1.000
    C171     C        0.35743    0.73850    0.83340    1.000
    H98      H        0.35230    0.75340    0.76400    1.000
    C172     C        0.38980    0.74740    0.88360    1.000
    C173     C        0.39669    0.72620    0.98890    1.000
    H99      H        0.41810    0.73270    0.02410    1.000
    C174     C        0.37209    0.69600    0.04070    1.000
    H100     H        0.37700    0.68280    0.11070    1.000
    C175     C        0.41769    0.77650    0.82890    1.000
    C176     C        0.43036    0.85490    0.84690    1.000
    C177     C        0.46036    0.87870    0.80780    1.000
    C178     C        0.47716    0.82320    0.75140    1.000
    C179     C        0.46307    0.74700    0.72680    1.000
    C180     C        0.43313    0.72350    0.76480    1.000
    C181     C        0.41981    0.64580    0.73720    1.000
    H101     H        0.40030    0.63010    0.76110    1.000
    C182     C        0.43444    0.59480    0.67790    1.000
    H102     H        0.42530    0.54420    0.66230    1.000
    C183     C        0.46398    0.61800    0.63920    1.000
    H103     H        0.47390    0.58330    0.59670    1.000
    C184     C        0.47774    0.69160    0.66440    1.000
    H104     H        0.49740    0.70560    0.63980    1.000
    C185     C        0.47250    0.95820    0.82990    1.000
    H105     H        0.49220    0.97420    0.80700    1.000
    C186     C        0.45590    0.01140    0.88420    1.000
    H106     H        0.46440    0.06290    0.89790    1.000
    C187     C        0.42612    0.98890    0.91930    1.000
    H107     H        0.41460    0.02600    0.95410    1.000
    C188     C        0.41383    0.91230    0.90260    1.000
    H108     H        0.39440    0.89770    0.92810    1.000
    C189     C        0.51063    0.84380    0.72430    1.000
    C190     C        0.53862    0.83660    0.80170    1.000
    C191     C        0.57114    0.85620    0.77870    1.000
    C192     C        0.57535    0.87940    0.67650    1.000
    C193     C        0.54755    0.88670    0.60040    1.000
    C194     C        0.51474    0.86980    0.62380    1.000
    C195     C        0.48705    0.87810    0.54440    1.000
    H109     H        0.46570    0.86930    0.55990    1.000
    C196     C        0.49147    0.89880    0.44500    1.000
    H110     H        0.47320    0.90220    0.39320    1.000
    C197     C        0.52387    0.91510    0.42120    1.000
    H111     H        0.52670    0.92950    0.35390    1.000
    C198     C        0.55098    0.90990    0.49620    1.000
    H112     H        0.57200    0.92160    0.47950    1.000
    C199     C        0.59907    0.85130    0.85990    1.000
    H113     H        0.62010    0.86530    0.84570    1.000
    C200     C        0.59516    0.82640    0.95750    1.000
    H114     H        0.61330    0.82420    0.00970    1.000
    C201     C        0.56279    0.80360    0.97850    1.000
    H115     H        0.56020    0.78440    0.04410    1.000
    C202     C        0.53576    0.80960    0.90410    1.000
    H116     H        0.51490    0.79580    0.92040    1.000
    C203     C        0.60994    0.89190    0.65450    1.000
    C204     C        0.62950    0.82480    0.64200    1.000
    H117     H        0.62000    0.77380    0.64100    1.000
    C205     C        0.66288    0.83230    0.63090    1.000
    H118     H        0.67540    0.78680    0.62070    1.000
    C206     C        0.67777    0.90890    0.63510    1.000
    C207     C        0.65827    0.97600    0.64460    1.000
    H119     H        0.66770    0.02700    0.64580    1.000
    C208     C        0.62465    0.96750    0.65230    1.000
    H120     H        0.61170    0.01330    0.65600    1.000
    C209     C        0.71446    0.91770    0.63350    1.000
    C210     C        0.15863    0.69800    0.03640    1.000
    C211     C        0.12622    0.69770    0.98600    1.000
    H121     H        0.12160    0.67950    0.91780    1.000
    C212     C        0.10067    0.72460    0.03720    1.000
    H122     H        0.07890    0.72320    0.00340    1.000
    C213     C        0.10693    0.75360    0.13790    1.000
    C214     C        0.13949    0.75450    0.18770    1.000
    H123     H        0.14410    0.77370    0.25540    1.000
    C215     C        0.16540    0.72710    0.13740    1.000
    H124     H        0.18720    0.72820    0.17130    1.000
    C216     C        0.07843    0.78190    0.18800    1.000
    C217     C        0.06571    0.86060    0.16660    1.000
    C218     C        0.03523    0.88430    0.20100    1.000
    C219     C        0.01859    0.83140    0.25990    1.000
    C220     C        0.03265    0.75650    0.28860    1.000
    C221     C        0.06290    0.73050    0.25120    1.000
    C222     C        0.07599    0.65270    0.28020    1.000
    H125     H        0.09500    0.63530    0.25460    1.000
    C223     C        0.06175    0.60410    0.34320    1.000
    H126     H        0.07080    0.55370    0.36090    1.000
    C224     C        0.03291    0.62990    0.38230    1.000
    H127     H        0.02370    0.59680    0.42830    1.000
    C225     C        0.01817    0.70150    0.35500    1.000
    H128     H        0.99850    0.71530    0.37950    1.000
    C226     C        0.08320    0.91660    0.10960    1.000
    H129     H        0.10300    0.90150    0.08690    1.000
    C227     C        0.07063    0.99190    0.08890    1.000
    H130     H        0.08250    0.02820    0.05380    1.000
    C228     C        0.04039    0.01590    0.11910    1.000
    H131     H        0.03210    0.06730    0.10270    1.000
    C229     C        0.02280    0.96360    0.17320    1.000
    H132     H        0.00260    0.97980    0.19210    1.000
    C230     C        0.98555    0.85320    0.28890    1.000
    C231     C        0.95637    0.84540    0.21670    1.000
    C232     C        0.92444    0.86270    0.24500    1.000
    C233     C        0.92197    0.88410    0.35010    1.000
    C234     C        0.95114    0.88990    0.42390    1.000
    C235     C        0.98319    0.87730    0.39320    1.000
    C236     C        0.01206    0.88670    0.46810    1.000
    H133     H        0.03310    0.88230    0.44810    1.000
    C237     C        0.00896    0.90190    0.56830    1.000
    H134     H        0.02800    0.90650    0.61680    1.000
    C238     C        0.97752    0.91120    0.60130    1.000
    H135     H        0.97590    0.92000    0.67100    1.000
    C239     C        0.94968    0.90710    0.52990    1.000
    H136     H        0.92910    0.91580    0.55130    1.000
    C240     C        0.95748    0.81890    0.11430    1.000
    H137     H        0.97800    0.80600    0.09450    1.000
    C241     C        0.92959    0.81150    0.04340    1.000
    H138     H        0.93110    0.79330    0.97650    1.000
    C242     C        0.89809    0.83170    0.07260    1.000
    H139     H        0.87910    0.82840    0.02370    1.000
    C243     C        0.89557    0.85560    0.16990    1.000
    H140     H        0.87480    0.86750    0.18820    1.000
    C244     C        0.88898    0.89510    0.38470    1.000
    C245     C        0.87676    0.97180    0.40540    1.000
    H141     H        0.88910    0.01730    0.39430    1.000
    C246     C        0.84629    0.98060    0.44250    1.000
    H142     H        0.83820    0.03170    0.45390    1.000
    C247     C        0.82793    0.91300    0.46260    1.000
    C248     C        0.83949    0.83800    0.44060    1.000
    H143     H        0.82730    0.79240    0.45270    1.000
    C249     C        0.86912    0.82990    0.40070    1.000
    H144     H        0.87600    0.77880    0.38400    1.000
    C250     C        0.79614    0.92320    0.50790    1.000
    O24      O        0.28575    0.63150    0.99420    1.000
    C251     C        0.31318    0.65130    0.04600    1.000
    C252     C        0.18621    0.66960    0.98100    1.000
    Cl3      Cl       0.25121    0.72962    0.74430    1.000
    Sr7      Sr       0.76387    0.09537    0.63339    1.000
    Sr8      Sr       0.74079    0.10859    0.32957    1.000
    O25      O        0.68086    0.14590    0.35720    1.000
    O26      O        0.27066    0.35780    0.90090    1.000
    O27      O        0.27182    0.48190    0.83550    1.000
    O28      O        0.82047    0.15110    0.61300    1.000
    O29      O        0.78440    0.16380    0.46930    1.000
    O30      O        0.21602    0.49230    0.98890    1.000
    O31      O        0.21627    0.35850    0.95920    1.000
    C253     C        0.65989    0.18500    0.51060    1.000
    C254     C        0.66736    0.20780    0.61480    1.000
    H145     H        0.68890    0.20230    0.64930    1.000
    C255     C        0.64257    0.23850    0.66660    1.000
    H146     H        0.64770    0.25340    0.73600    1.000
    C256     C        0.61020    0.24740    0.61640    1.000
    C257     C        0.60331    0.22620    0.51110    1.000
    H147     H        0.58190    0.23270    0.47590    1.000
    C258     C        0.62791    0.19600    0.45930    1.000
    H148     H        0.62300    0.18280    0.38930    1.000
    C259     C        0.58231    0.27650    0.67110    1.000
    C260     C        0.56964    0.35490    0.65310    1.000
    C261     C        0.53964    0.37870    0.69220    1.000
    C262     C        0.52284    0.32320    0.74860    1.000
    C263     C        0.53693    0.24700    0.77320    1.000
    C264     C        0.56687    0.22350    0.73520    1.000
    C265     C        0.58019    0.14580    0.76280    1.000
    H149     H        0.59970    0.13010    0.73890    1.000
    C266     C        0.56556    0.09480    0.82210    1.000
    H150     H        0.57470    0.04420    0.83770    1.000
    C267     C        0.53602    0.11800    0.86080    1.000
    H151     H        0.52610    0.08330    0.90330    1.000
    C268     C        0.52226    0.19160    0.83560    1.000
    H152     H        0.50260    0.20560    0.86020    1.000
    C269     C        0.52750    0.45820    0.67010    1.000
    H153     H        0.50780    0.47420    0.69300    1.000
    C270     C        0.54410    0.51140    0.61580    1.000
    H154     H        0.53560    0.56290    0.60210    1.000
    C271     C        0.57388    0.48890    0.58070    1.000
    H155     H        0.58540    0.52600    0.54590    1.000
    C272     C        0.58617    0.41230    0.59740    1.000
    H156     H        0.60560    0.39770    0.57190    1.000
    C273     C        0.48937    0.34380    0.77570    1.000
    C274     C        0.46138    0.33660    0.69830    1.000
    C275     C        0.42886    0.35620    0.72130    1.000
    C276     C        0.42465    0.37940    0.82350    1.000
    C277     C        0.45245    0.38670    0.89960    1.000
    C278     C        0.48526    0.36980    0.87620    1.000
    C279     C        0.51295    0.37810    0.95560    1.000
    H157     H        0.53430    0.36930    0.94010    1.000
    C280     C        0.50853    0.39880    0.05500    1.000
    H158     H        0.52680    0.40220    0.10680    1.000
    C281     C        0.47613    0.41510    0.07880    1.000
    H159     H        0.47330    0.42950    0.14610    1.000
    C282     C        0.44902    0.40990    0.00380    1.000
    H160     H        0.42800    0.42160    0.02050    1.000
    C283     C        0.40093    0.35130    0.64010    1.000
    H161     H        0.37990    0.36530    0.65430    1.000
    C284     C        0.40484    0.32640    0.54250    1.000
    H162     H        0.38670    0.32420    0.49030    1.000
    C285     C        0.43721    0.30360    0.52150    1.000
    H163     H        0.43980    0.28440    0.45590    1.000
    C286     C        0.46424    0.30960    0.59590    1.000
    H164     H        0.48510    0.29580    0.57960    1.000
    C287     C        0.39006    0.39190    0.84550    1.000
    C288     C        0.37050    0.32480    0.85800    1.000
    H165     H        0.38000    0.27380    0.85900    1.000
    C289     C        0.33712    0.33230    0.86910    1.000
    H166     H        0.32460    0.28680    0.87930    1.000
    C290     C        0.32223    0.40890    0.86490    1.000
    C291     C        0.34173    0.47600    0.85540    1.000
    H167     H        0.33230    0.52700    0.85420    1.000
    C292     C        0.37535    0.46750    0.84770    1.000
    H168     H        0.38830    0.51330    0.84400    1.000
    C293     C        0.28554    0.41770    0.86650    1.000
    C294     C        0.84137    0.19800    0.46360    1.000
    C295     C        0.87378    0.19770    0.51400    1.000
    H169     H        0.87840    0.17950    0.58220    1.000
    C296     C        0.89933    0.22460    0.46280    1.000
    H170     H        0.92110    0.22320    0.49660    1.000
    C297     C        0.89307    0.25360    0.36210    1.000
    C298     C        0.86051    0.25450    0.31230    1.000
    H171     H        0.85590    0.27370    0.24460    1.000
    C299     C        0.83460    0.22710    0.36260    1.000
    H172     H        0.81280    0.22820    0.32870    1.000
    C300     C        0.92157    0.28190    0.31200    1.000
    C301     C        0.93429    0.36060    0.33340    1.000
    C302     C        0.96477    0.38430    0.29900    1.000
    C303     C        0.98141    0.33140    0.24010    1.000
    C304     C        0.96735    0.25650    0.21140    1.000
    C305     C        0.93710    0.23050    0.24880    1.000
    C306     C        0.92401    0.15270    0.21980    1.000
    H173     H        0.90500    0.13530    0.24540    1.000
    C307     C        0.93825    0.10410    0.15680    1.000
    H174     H        0.92920    0.05370    0.13910    1.000
    C308     C        0.96709    0.12990    0.11770    1.000
    H175     H        0.97630    0.09680    0.07170    1.000
    C309     C        0.98183    0.20150    0.14500    1.000
    H176     H        0.00150    0.21530    0.12050    1.000
    C310     C        0.91680    0.41660    0.39040    1.000
    H177     H        0.89700    0.40150    0.41310    1.000
    C311     C        0.92937    0.49190    0.41110    1.000
    H178     H        0.91750    0.52820    0.44620    1.000
    C312     C        0.95961    0.51590    0.38090    1.000
    H179     H        0.96790    0.56730    0.39730    1.000
    C313     C        0.97720    0.46360    0.32680    1.000
    H180     H        0.99740    0.47980    0.30790    1.000
    C314     C        0.01445    0.35320    0.21110    1.000
    C315     C        0.04363    0.34540    0.28330    1.000
    C316     C        0.07556    0.36270    0.25500    1.000
    C317     C        0.07803    0.38410    0.14990    1.000
    C318     C        0.04886    0.38990    0.07610    1.000
    C319     C        0.01681    0.37730    0.10680    1.000
    C320     C        0.98794    0.38670    0.03190    1.000
    H181     H        0.96690    0.38230    0.05190    1.000
    C321     C        0.99104    0.40190    0.93170    1.000
    H182     H        0.97200    0.40650    0.88320    1.000
    C322     C        0.02248    0.41120    0.89870    1.000
    H183     H        0.02410    0.42000    0.82900    1.000
    C323     C        0.05032    0.40710    0.97010    1.000
    H184     H        0.07090    0.41580    0.94870    1.000
    C324     C        0.04252    0.31890    0.38570    1.000
    H185     H        0.02200    0.30600    0.40550    1.000
    C325     C        0.07041    0.31150    0.45660    1.000
    H186     H        0.06890    0.29330    0.52350    1.000
    C326     C        0.10191    0.33170    0.42740    1.000
    H187     H        0.12090    0.32840    0.47630    1.000
    C327     C        0.10443    0.35560    0.33010    1.000
    H188     H        0.12520    0.36750    0.31180    1.000
    C328     C        0.11102    0.39510    0.11530    1.000
    C329     C        0.12324    0.47180    0.09460    1.000
    H189     H        0.11090    0.51730    0.10570    1.000
    C330     C        0.15371    0.48060    0.05750    1.000
    H190     H        0.16180    0.53170    0.04610    1.000
    C331     C        0.17207    0.41300    0.03740    1.000
    C332     C        0.16051    0.33800    0.05940    1.000
    H191     H        0.17270    0.29240    0.04730    1.000
    C333     C        0.13088    0.32990    0.09930    1.000
    H192     H        0.12400    0.27880    0.11600    1.000
    C334     C        0.20386    0.42320    0.99210    1.000
    O32      O        0.71425    0.13150    0.50580    1.000
    C335     C        0.68682    0.15130    0.45400    1.000
    C336     C        0.81379    0.16960    0.51900    1.000
    Cl4      Cl       0.74879    0.22962    0.75570    1.000
