# CIF file generated by openbabel 3.1.0, see https://openbabel.org
data_I
_chemical_name_common 'image0'
_cell_length_a 20.2459
_cell_length_b 20.2459
_cell_length_c 23.016
_cell_angle_alpha 90
_cell_angle_beta 90
_cell_angle_gamma 120
_space_group_name_H-M_alt 'P 1'
_space_group_name_Hall 'P 1'
loop_
    _symmetry_equiv_pos_as_xyz
    x,y,z
loop_
    _atom_site_label
    _atom_site_type_symbol
    _atom_site_fract_x
    _atom_site_fract_y
    _atom_site_fract_z
    _atom_site_occupancy
    P1       P        0.11139    0.78807    0.00350    1.000
    P2       P        0.31204    0.88550    0.10997    1.000
    P3       P        0.11953    0.91886    0.15798    1.000
    Al1      Al       0.22115    0.95141    0.04924    1.000
    Al2      Al       0.13940    0.77780    0.13402    1.000
    O1       O        0.13570    0.75350    0.95735    1.000
    O2       O        0.16300    0.87510    0.00589    1.000
    O3       O        0.03050    0.77300    0.99330    1.000
    O4       O        0.11060    0.75440    0.06297    1.000
    O5       O        0.23810    0.82070    0.13580    1.000
    O6       O        0.36150    0.93040    0.16150    1.000
    O7       O        0.35160    0.85600    0.07260    1.000
    O8       O        0.16270    0.96250    0.21130    1.000
    O9       O        0.29380    0.93920    0.07620    1.000
    O10      O        0.10980    0.83770    0.16170    1.000
    O11      O        0.17010    0.96040    0.10510    1.000
    O12      O        0.04410    0.91270    0.15290    1.000
    P4       P        0.77806    0.12140    0.33683    1.000
    P5       P        0.97871    0.21883    0.44330    1.000
    P6       P        0.78620    0.25219    0.49131    1.000
    Al3      Al       0.88782    0.28474    0.38257    1.000
    Al4      Al       0.80607    0.11113    0.46735    1.000
    O13      O        0.80237    0.08683    0.29068    1.000
    O14      O        0.82967    0.20843    0.33922    1.000
    O15      O        0.69717    0.10633    0.32663    1.000
    O16      O        0.77727    0.08773    0.39630    1.000
    O17      O        0.90477    0.15403    0.46913    1.000
    O18      O        0.02817    0.26373    0.49483    1.000
    O19      O        0.01827    0.18933    0.40593    1.000
    O20      O        0.82937    0.29583    0.54463    1.000
    O21      O        0.96047    0.27253    0.40953    1.000
    O22      O        0.77647    0.17103    0.49503    1.000
    O23      O        0.83677    0.29373    0.43843    1.000
    O24      O        0.71077    0.24603    0.48623    1.000
    P7       P        0.44472    0.45474    0.67017    1.000
    P8       P        0.64537    0.55217    0.77664    1.000
    P9       P        0.45286    0.58553    0.82465    1.000
    Al5      Al       0.55448    0.61808    0.71591    1.000
    Al6      Al       0.47273    0.44447    0.80069    1.000
    O25      O        0.46903    0.42017    0.62402    1.000
    O26      O        0.49633    0.54177    0.67256    1.000
    O27      O        0.36383    0.43967    0.65997    1.000
    O28      O        0.44393    0.42107    0.72964    1.000
    O29      O        0.57143    0.48737    0.80247    1.000
    O30      O        0.69483    0.59707    0.82817    1.000
    O31      O        0.68493    0.52267    0.73927    1.000
    O32      O        0.49603    0.62917    0.87797    1.000
    O33      O        0.62713    0.60587    0.74287    1.000
    O34      O        0.44313    0.50437    0.82837    1.000
    O35      O        0.50343    0.62707    0.77177    1.000
    O36      O        0.37743    0.57937    0.81957    1.000
    P10      P        0.21193    0.32332    0.00350    1.000
    P11      P        0.11450    0.42654    0.10997    1.000
    P12      P        0.08114    0.20067    0.15798    1.000
    Al7      Al       0.04859    0.26974    0.04924    1.000
    Al8      Al       0.22220    0.36160    0.13402    1.000
    O37      O        0.24650    0.38220    0.95735    1.000
    O38      O        0.12490    0.28790    0.00589    1.000
    O39      O        0.22700    0.25750    0.99330    1.000
    O40      O        0.24560    0.35620    0.06297    1.000
    O41      O        0.17930    0.41740    0.13580    1.000
    O42      O        0.06960    0.43110    0.16150    1.000
    O43      O        0.14400    0.49560    0.07260    1.000
    O44      O        0.03750    0.20020    0.21130    1.000
    O45      O        0.06080    0.35460    0.07620    1.000
    O46      O        0.16230    0.27210    0.16170    1.000
    O47      O        0.03960    0.20970    0.10510    1.000
    O48      O        0.08730    0.13140    0.15290    1.000
    P13      P        0.87860    0.65665    0.33683    1.000
    P14      P        0.78117    0.75987    0.44330    1.000
    P15      P        0.74781    0.53400    0.49131    1.000
    Al9      Al       0.71526    0.60307    0.38257    1.000
    Al10     Al       0.88887    0.69493    0.46735    1.000
    O49      O        0.91317    0.71553    0.29068    1.000
    O50      O        0.79157    0.62123    0.33922    1.000
    O51      O        0.89367    0.59083    0.32663    1.000
    O52      O        0.91227    0.68953    0.39630    1.000
    O53      O        0.84597    0.75073    0.46913    1.000
    O54      O        0.73627    0.76443    0.49483    1.000
    O55      O        0.81067    0.82893    0.40593    1.000
    O56      O        0.70417    0.53353    0.54463    1.000
    O57      O        0.72747    0.68793    0.40953    1.000
    O58      O        0.82897    0.60543    0.49503    1.000
    O59      O        0.70627    0.54303    0.43843    1.000
    O60      O        0.75397    0.46473    0.48623    1.000
    P16      P        0.54526    0.98999    0.67017    1.000
    P17      P        0.44783    0.09321    0.77664    1.000
    P18      P        0.41447    0.86734    0.82465    1.000
    Al11     Al       0.38192    0.93641    0.71591    1.000
    Al12     Al       0.55553    0.02827    0.80069    1.000
    O61      O        0.57983    0.04887    0.62402    1.000
    O62      O        0.45823    0.95457    0.67256    1.000
    O63      O        0.56033    0.92417    0.65997    1.000
    O64      O        0.57893    0.02287    0.72964    1.000
    O65      O        0.51263    0.08407    0.80247    1.000
    O66      O        0.40293    0.09777    0.82817    1.000
    O67      O        0.47733    0.16227    0.73927    1.000
    O68      O        0.37083    0.86687    0.87797    1.000
    O69      O        0.39413    0.02127    0.74287    1.000
    O70      O        0.49563    0.93877    0.82837    1.000
    O71      O        0.37293    0.87637    0.77177    1.000
    O72      O        0.42063    0.79807    0.81957    1.000
    P19      P        0.67668    0.88861    0.00350    1.000
    P20      P        0.57346    0.68796    0.10997    1.000
    P21      P        0.79933    0.88047    0.15798    1.000
    Al13     Al       0.73026    0.77885    0.04924    1.000
    Al14     Al       0.63840    0.86060    0.13402    1.000
    O73      O        0.61780    0.86430    0.95735    1.000
    O74      O        0.71210    0.83700    0.00589    1.000
    O75      O        0.74250    0.96950    0.99330    1.000
    O76      O        0.64380    0.88940    0.06297    1.000
    O77      O        0.58260    0.76190    0.13580    1.000
    O78      O        0.56890    0.63850    0.16150    1.000
    O79      O        0.50440    0.64840    0.07260    1.000
    O80      O        0.79980    0.83730    0.21130    1.000
    O81      O        0.64540    0.70620    0.07620    1.000
    O82      O        0.72790    0.89020    0.16170    1.000
    O83      O        0.79030    0.82990    0.10510    1.000
    O84      O        0.86860    0.95590    0.15290    1.000
    P22      P        0.34335    0.22194    0.33683    1.000
    P23      P        0.24013    0.02129    0.44330    1.000
    P24      P        0.46600    0.21380    0.49131    1.000
    Al15     Al       0.39693    0.11218    0.38257    1.000
    Al16     Al       0.30507    0.19393    0.46735    1.000
    O85      O        0.28447    0.19763    0.29068    1.000
    O86      O        0.37877    0.17033    0.33922    1.000
    O87      O        0.40917    0.30283    0.32663    1.000
    O88      O        0.31047    0.22273    0.39630    1.000
    O89      O        0.24927    0.09523    0.46913    1.000
    O90      O        0.23557    0.97183    0.49483    1.000
    O91      O        0.17107    0.98173    0.40593    1.000
    O92      O        0.46647    0.17063    0.54463    1.000
    O93      O        0.31207    0.03953    0.40953    1.000
    O94      O        0.39457    0.22353    0.49503    1.000
    O95      O        0.45697    0.16323    0.43843    1.000
    O96      O        0.53527    0.28923    0.48623    1.000
    P25      P        0.01001    0.55528    0.67017    1.000
    P26      P        0.90679    0.35463    0.77664    1.000
    P27      P        0.13266    0.54714    0.82465    1.000
    Al17     Al       0.06359    0.44552    0.71591    1.000
    Al18     Al       0.97173    0.52727    0.80069    1.000
    O97      O        0.95113    0.53097    0.62402    1.000
    O98      O        0.04543    0.50367    0.67256    1.000
    O99      O        0.07583    0.63617    0.65997    1.000
    O100     O        0.97713    0.55607    0.72964    1.000
    O101     O        0.91593    0.42857    0.80247    1.000
    O102     O        0.90223    0.30517    0.82817    1.000
    O103     O        0.83773    0.31507    0.73927    1.000
    O104     O        0.13313    0.50397    0.87797    1.000
    O105     O        0.97873    0.37287    0.74287    1.000
    O106     O        0.06123    0.55687    0.82837    1.000
    O107     O        0.12363    0.49657    0.77177    1.000
    O108     O        0.20193    0.62257    0.81957    1.000
    P28      P        0.88861    0.21193    0.99650    1.000
    P29      P        0.68796    0.11450    0.89003    1.000
    P30      P        0.88047    0.08114    0.84202    1.000
    Al19     Al       0.77885    0.04859    0.95076    1.000
    Al20     Al       0.86060    0.22220    0.86598    1.000
    O109     O        0.86430    0.24650    0.04265    1.000
    O110     O        0.83700    0.12490    0.99411    1.000
    O111     O        0.96950    0.22700    0.00670    1.000
    O112     O        0.88940    0.24560    0.93703    1.000
    O113     O        0.76190    0.17930    0.86420    1.000
    O114     O        0.63850    0.06960    0.83850    1.000
    O115     O        0.64840    0.14400    0.92740    1.000
    O116     O        0.83730    0.03750    0.78870    1.000
    O117     O        0.70620    0.06080    0.92380    1.000
    O118     O        0.89020    0.16230    0.83830    1.000
    O119     O        0.82990    0.03960    0.89490    1.000
    O120     O        0.95590    0.08730    0.84710    1.000
    P31      P        0.55528    0.54526    0.32983    1.000
    P32      P        0.35463    0.44783    0.22336    1.000
    P33      P        0.54714    0.41447    0.17535    1.000
    Al21     Al       0.44552    0.38192    0.28409    1.000
    Al22     Al       0.52727    0.55553    0.19931    1.000
    O121     O        0.53097    0.57983    0.37598    1.000
    O122     O        0.50367    0.45823    0.32744    1.000
    O123     O        0.63617    0.56033    0.34003    1.000
    O124     O        0.55607    0.57893    0.27036    1.000
    O125     O        0.42857    0.51263    0.19753    1.000
    O126     O        0.30517    0.40293    0.17183    1.000
    O127     O        0.31507    0.47733    0.26073    1.000
    O128     O        0.50397    0.37083    0.12203    1.000
    O129     O        0.37287    0.39413    0.25713    1.000
    O130     O        0.55687    0.49563    0.17163    1.000
    O131     O        0.49657    0.37293    0.22823    1.000
    O132     O        0.62257    0.42063    0.18043    1.000
    P34      P        0.22194    0.87860    0.66317    1.000
    P35      P        0.02129    0.78117    0.55670    1.000
    P36      P        0.21380    0.74781    0.50869    1.000
    Al23     Al       0.11218    0.71526    0.61743    1.000
    Al24     Al       0.19393    0.88887    0.53265    1.000
    O133     O        0.19763    0.91317    0.70932    1.000
    O134     O        0.17033    0.79157    0.66078    1.000
    O135     O        0.30283    0.89367    0.67337    1.000
    O136     O        0.22273    0.91227    0.60370    1.000
    O137     O        0.09523    0.84597    0.53087    1.000
    O138     O        0.97183    0.73627    0.50517    1.000
    O139     O        0.98173    0.81067    0.59407    1.000
    O140     O        0.17063    0.70417    0.45537    1.000
    O141     O        0.03953    0.72747    0.59047    1.000
    O142     O        0.22353    0.82897    0.50497    1.000
    O143     O        0.16323    0.70627    0.56157    1.000
    O144     O        0.28923    0.75397    0.51377    1.000
    P37      P        0.78807    0.67668    0.99650    1.000
    P38      P        0.88550    0.57346    0.89003    1.000
    P39      P        0.91886    0.79933    0.84202    1.000
    Al25     Al       0.95141    0.73026    0.95076    1.000
    Al26     Al       0.77780    0.63840    0.86598    1.000
    O145     O        0.75350    0.61780    0.04265    1.000
    O146     O        0.87510    0.71210    0.99411    1.000
    O147     O        0.77300    0.74250    0.00670    1.000
    O148     O        0.75440    0.64380    0.93703    1.000
    O149     O        0.82070    0.58260    0.86420    1.000
    O150     O        0.93040    0.56890    0.83850    1.000
    O151     O        0.85600    0.50440    0.92740    1.000
    O152     O        0.96250    0.79980    0.78870    1.000
    O153     O        0.93920    0.64540    0.92380    1.000
    O154     O        0.83770    0.72790    0.83830    1.000
    O155     O        0.96040    0.79030    0.89490    1.000
    O156     O        0.91270    0.86860    0.84710    1.000
    P40      P        0.45474    0.01001    0.32983    1.000
    P41      P        0.55217    0.90679    0.22336    1.000
    P42      P        0.58553    0.13266    0.17535    1.000
    Al27     Al       0.61808    0.06359    0.28409    1.000
    Al28     Al       0.44447    0.97173    0.19931    1.000
    O157     O        0.42017    0.95113    0.37598    1.000
    O158     O        0.54177    0.04543    0.32744    1.000
    O159     O        0.43967    0.07583    0.34003    1.000
    O160     O        0.42107    0.97713    0.27036    1.000
    O161     O        0.48737    0.91593    0.19753    1.000
    O162     O        0.59707    0.90223    0.17183    1.000
    O163     O        0.52267    0.83773    0.26073    1.000
    O164     O        0.62917    0.13313    0.12203    1.000
    O165     O        0.60587    0.97873    0.25713    1.000
    O166     O        0.50437    0.06123    0.17163    1.000
    O167     O        0.62707    0.12363    0.22823    1.000
    O168     O        0.57937    0.20193    0.18043    1.000
    P43      P        0.12140    0.34335    0.66317    1.000
    P44      P        0.21883    0.24013    0.55670    1.000
    P45      P        0.25219    0.46600    0.50869    1.000
    Al29     Al       0.28474    0.39693    0.61743    1.000
    Al30     Al       0.11113    0.30507    0.53265    1.000
    O169     O        0.08683    0.28447    0.70932    1.000
    O170     O        0.20843    0.37877    0.66078    1.000
    O171     O        0.10633    0.40917    0.67337    1.000
    O172     O        0.08773    0.31047    0.60370    1.000
    O173     O        0.15403    0.24927    0.53087    1.000
    O174     O        0.26373    0.23557    0.50517    1.000
    O175     O        0.18933    0.17107    0.59407    1.000
    O176     O        0.29583    0.46647    0.45537    1.000
    O177     O        0.27253    0.31207    0.59047    1.000
    O178     O        0.17103    0.39457    0.50497    1.000
    O179     O        0.29373    0.45697    0.56157    1.000
    O180     O        0.24603    0.53527    0.51377    1.000
    P46      P        0.32332    0.11139    0.99650    1.000
    P47      P        0.42654    0.31204    0.89003    1.000
    P48      P        0.20067    0.11953    0.84202    1.000
    Al31     Al       0.26974    0.22115    0.95076    1.000
    Al32     Al       0.36160    0.13940    0.86598    1.000
    O181     O        0.38220    0.13570    0.04265    1.000
    O182     O        0.28790    0.16300    0.99411    1.000
    O183     O        0.25750    0.03050    0.00670    1.000
    O184     O        0.35620    0.11060    0.93703    1.000
    O185     O        0.41740    0.23810    0.86420    1.000
    O186     O        0.43110    0.36150    0.83850    1.000
    O187     O        0.49560    0.35160    0.92740    1.000
    O188     O        0.20020    0.16270    0.78870    1.000
    O189     O        0.35460    0.29380    0.92380    1.000
    O190     O        0.27210    0.10980    0.83830    1.000
    O191     O        0.20970    0.17010    0.89490    1.000
    O192     O        0.13140    0.04410    0.84710    1.000
    P49      P        0.98999    0.44472    0.32983    1.000
    P50      P        0.09321    0.64537    0.22336    1.000
    P51      P        0.86734    0.45286    0.17535    1.000
    Al33     Al       0.93641    0.55448    0.28409    1.000
    Al34     Al       0.02827    0.47273    0.19931    1.000
    O193     O        0.04887    0.46903    0.37598    1.000
    O194     O        0.95457    0.49633    0.32744    1.000
    O195     O        0.92417    0.36383    0.34003    1.000
    O196     O        0.02287    0.44393    0.27036    1.000
    O197     O        0.08407    0.57143    0.19753    1.000
    O198     O        0.09777    0.69483    0.17183    1.000
    O199     O        0.16227    0.68493    0.26073    1.000
    O200     O        0.86687    0.49603    0.12203    1.000
    O201     O        0.02127    0.62713    0.25713    1.000
    O202     O        0.93877    0.44313    0.17163    1.000
    O203     O        0.87637    0.50343    0.22823    1.000
    O204     O        0.79807    0.37743    0.18043    1.000
    P52      P        0.65665    0.77806    0.66317    1.000
    P53      P        0.75987    0.97871    0.55670    1.000
    P54      P        0.53400    0.78620    0.50869    1.000
    Al35     Al       0.60307    0.88782    0.61743    1.000
    Al36     Al       0.69493    0.80607    0.53265    1.000
    O205     O        0.71553    0.80237    0.70932    1.000
    O206     O        0.62123    0.82967    0.66078    1.000
    O207     O        0.59083    0.69717    0.67337    1.000
    O208     O        0.68953    0.77727    0.60370    1.000
    O209     O        0.75073    0.90477    0.53087    1.000
    O210     O        0.76443    0.02817    0.50517    1.000
    O211     O        0.82893    0.01827    0.59407    1.000
    O212     O        0.53353    0.82937    0.45537    1.000
    O213     O        0.68793    0.96047    0.59047    1.000
    O214     O        0.60543    0.77647    0.50497    1.000
    O215     O        0.54303    0.83677    0.56157    1.000
    O216     O        0.46473    0.71077    0.51377    1.000
