# CIF file generated by openbabel 3.1.0, see https://openbabel.org
data_I
_chemical_name_common 'image0'
_cell_length_a 11.54
_cell_length_b 11.54
_cell_length_c 14.943
_cell_angle_alpha 90
_cell_angle_beta 90
_cell_angle_gamma 90
_space_group_name_H-M_alt 'P 1'
_space_group_name_Hall 'P 1'
loop_
    _symmetry_equiv_pos_as_xyz
    x,y,z
loop_
    _atom_site_label
    _atom_site_type_symbol
    _atom_site_fract_x
    _atom_site_fract_y
    _atom_site_fract_z
    _atom_site_occupancy
    N1       N        0.92720    0.68960    0.92620    1.000
    C1       C        0.87630    0.71740    0.00470    1.000
    H1       H        0.86530    0.65850    0.04840    1.000
    C2       C        0.83970    0.82910    0.02360    1.000
    H2       H        0.80570    0.84580    0.08010    1.000
    C3       C        0.85220    0.91550    0.96170    1.000
    C4       C        0.89820    0.88610    0.87810    1.000
    H3       H        0.90440    0.94230    0.83190    1.000
    C5       C        0.93470    0.77260    0.86420    1.000
    H4       H        0.96670    0.75310    0.80760    1.000
    C6       C        0.81680    0.03770    0.98520    1.000
    C7       C        0.75290    0.10660    0.91630    1.000
    H5       H        0.67360    0.12100    0.93690    1.000
    H6       H        0.75080    0.06330    0.85990    1.000
    H7       H        0.79250    0.18080    0.90690    1.000
    N2       N        0.84460    0.07070    0.06340    1.000
    C8       C        0.81260    0.18560    0.09670    1.000
    H8       H        0.73400    0.20560    0.07510    1.000
    H9       H        0.86740    0.24390    0.07280    1.000
    C9       C        0.81440    0.18950    0.19780    1.000
    H10      H        0.79590    0.26880    0.21870    1.000
    H11      H        0.75520    0.13590    0.22210    1.000
    N3       N        0.92950    0.15560    0.23000    1.000
    C10      C        0.96240    0.18240    0.30850    1.000
    C11      C        0.89410    0.24810    0.37680    1.000
    H12      H        0.89030    0.32990    0.35970    1.000
    H13      H        0.93160    0.24100    0.43540    1.000
    H14      H        0.81540    0.21630    0.38010    1.000
    C12      C        0.08440    0.14820    0.33280    1.000
    C13      C        0.17140    0.16110    0.27000    1.000
    H15      H        0.15500    0.19620    0.21380    1.000
    C14      C        0.28240    0.12290    0.28900    1.000
    H16      H        0.34100    0.13250    0.24500    1.000
    N4       N        0.31040    0.07270    0.36720    1.000
    C15      C        0.22780    0.06440    0.42890    1.000
    H17      H        0.24710    0.03170    0.48530    1.000
    C16      C        0.11360    0.10170    0.41470    1.000
    H18      H        0.05720    0.09490    0.46070    1.000
    N5       N        0.07280    0.31040    0.92620    1.000
    C17      C        0.12370    0.28260    0.00470    1.000
    H19      H        0.13470    0.34150    0.04840    1.000
    C18      C        0.16030    0.17090    0.02360    1.000
    H20      H        0.19430    0.15420    0.08010    1.000
    C19      C        0.14780    0.08450    0.96170    1.000
    C20      C        0.10180    0.11390    0.87810    1.000
    H21      H        0.09560    0.05770    0.83190    1.000
    C21      C        0.06530    0.22740    0.86420    1.000
    H22      H        0.03330    0.24690    0.80760    1.000
    C22      C        0.18320    0.96230    0.98520    1.000
    C23      C        0.24710    0.89340    0.91630    1.000
    H23      H        0.32640    0.87900    0.93690    1.000
    H24      H        0.24920    0.93670    0.85990    1.000
    H25      H        0.20750    0.81920    0.90690    1.000
    N6       N        0.15540    0.92930    0.06340    1.000
    C24      C        0.18740    0.81440    0.09670    1.000
    H26      H        0.26600    0.79440    0.07510    1.000
    H27      H        0.13260    0.75610    0.07280    1.000
    C25      C        0.18560    0.81050    0.19780    1.000
    H28      H        0.20410    0.73120    0.21870    1.000
    H29      H        0.24480    0.86410    0.22210    1.000
    N7       N        0.07050    0.84440    0.23000    1.000
    C26      C        0.03760    0.81760    0.30850    1.000
    C27      C        0.10590    0.75190    0.37680    1.000
    H30      H        0.10970    0.67010    0.35970    1.000
    H31      H        0.06840    0.75900    0.43540    1.000
    H32      H        0.18460    0.78370    0.38010    1.000
    C28      C        0.91560    0.85180    0.33280    1.000
    C29      C        0.82860    0.83890    0.27000    1.000
    H33      H        0.84500    0.80380    0.21380    1.000
    C30      C        0.71760    0.87710    0.28900    1.000
    H34      H        0.65900    0.86750    0.24500    1.000
    N8       N        0.68960    0.92730    0.36720    1.000
    C31      C        0.77220    0.93560    0.42890    1.000
    H35      H        0.75290    0.96830    0.48530    1.000
    C32      C        0.88640    0.89830    0.41470    1.000
    H36      H        0.94280    0.90510    0.46070    1.000
    N9       N        0.42720    0.81040    0.42620    1.000
    C33      C        0.37630    0.78260    0.50470    1.000
    H37      H        0.36530    0.84150    0.54840    1.000
    C34      C        0.33970    0.67090    0.52360    1.000
    H38      H        0.30570    0.65420    0.58010    1.000
    C35      C        0.35220    0.58450    0.46170    1.000
    C36      C        0.39820    0.61390    0.37810    1.000
    H39      H        0.40440    0.55770    0.33190    1.000
    C37      C        0.43470    0.72740    0.36420    1.000
    H40      H        0.46670    0.74690    0.30760    1.000
    C38      C        0.31680    0.46230    0.48520    1.000
    C39      C        0.25290    0.39340    0.41630    1.000
    H41      H        0.17360    0.37900    0.43690    1.000
    H42      H        0.25080    0.43670    0.35990    1.000
    H43      H        0.29250    0.31920    0.40690    1.000
    N10      N        0.34460    0.42930    0.56340    1.000
    C40      C        0.31260    0.31440    0.59670    1.000
    H44      H        0.23400    0.29440    0.57510    1.000
    H45      H        0.36740    0.25610    0.57280    1.000
    C41      C        0.31440    0.31050    0.69780    1.000
    H46      H        0.29590    0.23120    0.71870    1.000
    H47      H        0.25520    0.36410    0.72210    1.000
    N11      N        0.42950    0.34440    0.73000    1.000
    C42      C        0.46240    0.31760    0.80850    1.000
    C43      C        0.39410    0.25190    0.87680    1.000
    H48      H        0.39030    0.17010    0.85970    1.000
    H49      H        0.43160    0.25900    0.93540    1.000
    H50      H        0.31540    0.28370    0.88010    1.000
    C44      C        0.58440    0.35180    0.83280    1.000
    C45      C        0.67140    0.33890    0.77000    1.000
    H51      H        0.65500    0.30380    0.71380    1.000
    C46      C        0.78240    0.37710    0.78900    1.000
    H52      H        0.84100    0.36750    0.74500    1.000
    N12      N        0.81040    0.42730    0.86720    1.000
    C47      C        0.72780    0.43560    0.92890    1.000
    H53      H        0.74710    0.46830    0.98530    1.000
    C48      C        0.61360    0.39830    0.91470    1.000
    H54      H        0.55720    0.40510    0.96070    1.000
    N13      N        0.57280    0.18960    0.42620    1.000
    C49      C        0.62370    0.21740    0.50470    1.000
    H55      H        0.63470    0.15850    0.54840    1.000
    C50      C        0.66030    0.32910    0.52360    1.000
    H56      H        0.69430    0.34580    0.58010    1.000
    C51      C        0.64780    0.41550    0.46170    1.000
    C52      C        0.60180    0.38610    0.37810    1.000
    H57      H        0.59560    0.44230    0.33190    1.000
    C53      C        0.56530    0.27260    0.36420    1.000
    H58      H        0.53330    0.25310    0.30760    1.000
    C54      C        0.68320    0.53770    0.48520    1.000
    C55      C        0.74710    0.60660    0.41630    1.000
    H59      H        0.82640    0.62100    0.43690    1.000
    H60      H        0.74920    0.56330    0.35990    1.000
    H61      H        0.70750    0.68080    0.40690    1.000
    N14      N        0.65540    0.57070    0.56340    1.000
    C56      C        0.68740    0.68560    0.59670    1.000
    H62      H        0.76600    0.70560    0.57510    1.000
    H63      H        0.63260    0.74390    0.57280    1.000
    C57      C        0.68560    0.68950    0.69780    1.000
    H64      H        0.70410    0.76880    0.71870    1.000
    H65      H        0.74480    0.63590    0.72210    1.000
    N15      N        0.57050    0.65560    0.73000    1.000
    C58      C        0.53760    0.68240    0.80850    1.000
    C59      C        0.60590    0.74810    0.87680    1.000
    H66      H        0.60970    0.82990    0.85970    1.000
    H67      H        0.56840    0.74100    0.93540    1.000
    H68      H        0.68460    0.71630    0.88010    1.000
    C60      C        0.41560    0.64820    0.83280    1.000
    C61      C        0.32860    0.66110    0.77000    1.000
    H69      H        0.34500    0.69620    0.71380    1.000
    C62      C        0.21760    0.62290    0.78900    1.000
    H70      H        0.15900    0.63250    0.74500    1.000
    N16      N        0.18960    0.57270    0.86720    1.000
    C63      C        0.27220    0.56440    0.92890    1.000
    H71      H        0.25290    0.53170    0.98530    1.000
    C64      C        0.38640    0.60170    0.91470    1.000
    H72      H        0.44280    0.59490    0.96070    1.000
    Ag1      Ag       0.00000    0.00000    0.14600    1.000
    Ag2      Ag       0.50000    0.50000    0.64600    1.000
    Ag3      Ag       0.00000    0.50000    0.89600    1.000
    Ag4      Ag       0.50000    0.00000    0.39600    1.000
