# CIF file generated by openbabel 3.1.0, see https://openbabel.org
data_I
_chemical_name_common 'image0'
_cell_length_a 33.4317
_cell_length_b 7.152
_cell_length_c 16.7181
_cell_angle_alpha 90
_cell_angle_beta 90
_cell_angle_gamma 90
_space_group_name_H-M_alt 'P 1'
_space_group_name_Hall 'P 1'
loop_
    _symmetry_equiv_pos_as_xyz
    x,y,z
loop_
    _atom_site_label
    _atom_site_type_symbol
    _atom_site_fract_x
    _atom_site_fract_y
    _atom_site_fract_z
    _atom_site_occupancy
    O1       O        0.78961    0.16270    0.90840    1.000
    C1       C        0.87961    0.15780    0.73920    1.000
    C2       C        0.84999    0.15630    0.80056    1.000
    O2       O        0.28961    0.66270    0.90840    1.000
    C3       C        0.37961    0.65780    0.73920    1.000
    C4       C        0.34999    0.65630    0.80056    1.000
    O3       O        0.21039    0.83730    0.90840    1.000
    C5       C        0.12039    0.84220    0.73920    1.000
    C6       C        0.15001    0.84370    0.80056    1.000
    O4       O        0.71039    0.33730    0.90840    1.000
    C7       C        0.62039    0.34220    0.73920    1.000
    C8       C        0.65001    0.34370    0.80056    1.000
    O5       O        0.21039    0.16270    0.09160    1.000
    C9       C        0.12039    0.15780    0.26080    1.000
    C10      C        0.15001    0.15630    0.19944    1.000
    O6       O        0.71039    0.66270    0.09160    1.000
    C11      C        0.62039    0.65780    0.26080    1.000
    C12      C        0.65001    0.65630    0.19944    1.000
    O7       O        0.78961    0.83730    0.09160    1.000
    C13      C        0.87961    0.84220    0.26080    1.000
    C14      C        0.84999    0.84370    0.19944    1.000
    O8       O        0.28961    0.33730    0.09160    1.000
    C15      C        0.37961    0.34220    0.26080    1.000
    C16      C        0.34999    0.34370    0.19944    1.000
    O9       O        0.21039    0.83730    0.09160    1.000
    C17      C        0.12039    0.84220    0.26080    1.000
    C18      C        0.15001    0.84370    0.19944    1.000
    O10      O        0.71039    0.33730    0.09160    1.000
    C19      C        0.62039    0.34220    0.26080    1.000
    C20      C        0.65001    0.34370    0.19944    1.000
    O11      O        0.78961    0.16270    0.09160    1.000
    C21      C        0.87961    0.15780    0.26080    1.000
    C22      C        0.84999    0.15630    0.19944    1.000
    O12      O        0.28961    0.66270    0.09160    1.000
    C23      C        0.37961    0.65780    0.26080    1.000
    C24      C        0.34999    0.65630    0.19944    1.000
    O13      O        0.78961    0.83730    0.90840    1.000
    C25      C        0.87961    0.84220    0.73920    1.000
    C26      C        0.84999    0.84370    0.80056    1.000
    O14      O        0.28961    0.33730    0.90840    1.000
    C27      C        0.37961    0.34220    0.73920    1.000
    C28      C        0.34999    0.34370    0.80056    1.000
    O15      O        0.21039    0.16270    0.90840    1.000
    C29      C        0.12039    0.15780    0.73920    1.000
    C30      C        0.15001    0.15630    0.80056    1.000
    O16      O        0.71039    0.66270    0.90840    1.000
    C31      C        0.62039    0.65780    0.73920    1.000
    C32      C        0.65001    0.65630    0.80056    1.000
    C33      C        0.80160    0.00000    0.89770    1.000
    C34      C        0.96665    0.00000    0.67280    1.000
    C35      C        0.97974    0.00000    0.75230    1.000
    C36      C        0.91234    0.00000    0.56790    1.000
    C37      C        0.87367    0.00000    0.54067    1.000
    C38      C        0.92929    0.00000    0.64210    1.000
    C39      C        0.89674    0.00000    0.70400    1.000
    C40      C        0.83332    0.00000    0.83560    1.000
    C41      C        0.30160    0.50000    0.89770    1.000
    C42      C        0.46665    0.50000    0.67280    1.000
    C43      C        0.47974    0.50000    0.75230    1.000
    C44      C        0.41234    0.50000    0.56790    1.000
    C45      C        0.37367    0.50000    0.54067    1.000
    C46      C        0.42929    0.50000    0.64210    1.000
    C47      C        0.39674    0.50000    0.70400    1.000
    C48      C        0.33332    0.50000    0.83560    1.000
    C49      C        0.19840    0.00000    0.89770    1.000
    C50      C        0.03335    0.00000    0.67280    1.000
    C51      C        0.02026    0.00000    0.75230    1.000
    C52      C        0.08766    0.00000    0.56790    1.000
    C53      C        0.12633    0.00000    0.54067    1.000
    C54      C        0.07071    0.00000    0.64210    1.000
    C55      C        0.10326    0.00000    0.70400    1.000
    C56      C        0.16668    0.00000    0.83560    1.000
    C57      C        0.69840    0.50000    0.89770    1.000
    C58      C        0.53335    0.50000    0.67280    1.000
    C59      C        0.52026    0.50000    0.75230    1.000
    C60      C        0.58766    0.50000    0.56790    1.000
    C61      C        0.62633    0.50000    0.54067    1.000
    C62      C        0.57071    0.50000    0.64210    1.000
    C63      C        0.60326    0.50000    0.70400    1.000
    C64      C        0.66668    0.50000    0.83560    1.000
    C65      C        0.19840    0.00000    0.10230    1.000
    C66      C        0.03335    0.00000    0.32720    1.000
    C67      C        0.02026    0.00000    0.24770    1.000
    C68      C        0.08766    0.00000    0.43210    1.000
    C69      C        0.12633    0.00000    0.45933    1.000
    C70      C        0.07071    0.00000    0.35790    1.000
    C71      C        0.10326    0.00000    0.29600    1.000
    C72      C        0.16668    0.00000    0.16440    1.000
    C73      C        0.69840    0.50000    0.10230    1.000
    C74      C        0.53335    0.50000    0.32720    1.000
    C75      C        0.52026    0.50000    0.24770    1.000
    C76      C        0.58766    0.50000    0.43210    1.000
    C77      C        0.62633    0.50000    0.45933    1.000
    C78      C        0.57071    0.50000    0.35790    1.000
    C79      C        0.60326    0.50000    0.29600    1.000
    C80      C        0.66668    0.50000    0.16440    1.000
    C81      C        0.80160    0.00000    0.10230    1.000
    C82      C        0.96665    0.00000    0.32720    1.000
    C83      C        0.97974    0.00000    0.24770    1.000
    C84      C        0.91234    0.00000    0.43210    1.000
    C85      C        0.87367    0.00000    0.45933    1.000
    C86      C        0.92929    0.00000    0.35790    1.000
    C87      C        0.89674    0.00000    0.29600    1.000
    C88      C        0.83332    0.00000    0.16440    1.000
    C89      C        0.30160    0.50000    0.10230    1.000
    C90      C        0.46665    0.50000    0.32720    1.000
    C91      C        0.47974    0.50000    0.24770    1.000
    C92      C        0.41234    0.50000    0.43210    1.000
    C93      C        0.37367    0.50000    0.45933    1.000
    C94      C        0.42929    0.50000    0.35790    1.000
    C95      C        0.39674    0.50000    0.29600    1.000
    C96      C        0.33332    0.50000    0.16440    1.000
    N1       N        0.93900    0.00000    0.50000    1.000
    N2       N        0.43900    0.50000    0.50000    1.000
    N3       N        0.06100    0.00000    0.50000    1.000
    N4       N        0.56100    0.50000    0.50000    1.000
    N5       N        0.00000    0.00000    0.62120    1.000
    N6       N        0.50000    0.50000    0.62120    1.000
    N7       N        0.00000    0.00000    0.37880    1.000
    N8       N        0.50000    0.50000    0.37880    1.000
    In1      In       0.75000    0.25000    0.00000    1.000
    In2      In       0.25000    0.75000    0.00000    1.000
    In3      In       0.25000    0.25000    0.00000    1.000
    In4      In       0.75000    0.75000    0.00000    1.000
    O17      O        0.73080    0.00000    0.00000    1.000
    O18      O        0.23080    0.50000    0.00000    1.000
    O19      O        0.26920    0.00000    0.00000    1.000
    O20      O        0.76920    0.50000    0.00000    1.000
