# CIF file generated by openbabel 3.1.0, see https://openbabel.org
data_I
_chemical_name_common 'XEHFUL_clean'
_cell_length_a 7.8198
_cell_length_b 8.4354
_cell_length_c 9.4908
_cell_angle_alpha 90
_cell_angle_beta 90
_cell_angle_gamma 117.614
_space_group_name_H-M_alt 'P 1'
_space_group_name_Hall 'P 1'
loop_
    _symmetry_equiv_pos_as_xyz
    x,y,z
loop_
    _atom_site_label
    _atom_site_type_symbol
    _atom_site_fract_x
    _atom_site_fract_y
    _atom_site_fract_z
    _atom_site_occupancy
    Y1       Y        0.70716    0.41432    0.75000    1.000
    Y2       Y        0.29277    0.58554    0.75000    1.000
    Y3       Y        0.29284    0.58568    0.25000    1.000
    Y4       Y        0.70723    0.41446    0.25000    1.000
    C1       C        0.59820    0.99780    0.74270    1.000
    C2       C        0.08030    0.55080    0.50050    1.000
    C3       C        0.40180    0.00220    0.24270    1.000
    C4       C        0.91970    0.44920    0.00050    1.000
    C5       C        0.39960    0.99780    0.75730    1.000
    C6       C        0.47050    0.55080    0.99950    1.000
    C7       C        0.60040    0.00220    0.25730    1.000
    C8       C        0.52950    0.44920    0.49950    1.000
    O1       O        0.74290    0.14520    0.73700    1.000
    O2       O        0.59130    0.84560    0.73610    1.000
    O3       O        0.99750    0.50680    0.61970    1.000
    O4       O        0.26550    0.63960    0.50320    1.000
    O5       O        0.99670    0.50520    0.38140    1.000
    O6       O        0.25710    0.85480    0.23700    1.000
    O7       O        0.40870    0.15440    0.23610    1.000
    O8       O        0.00250    0.49320    0.11970    1.000
    O9       O        0.73450    0.36040    0.00320    1.000
    O10      O        0.00330    0.49480    0.88140    1.000
    O11      O        0.40230    0.14520    0.76300    1.000
    O12      O        0.25430    0.84560    0.76390    1.000
    O13      O        0.50930    0.50680    0.88030    1.000
    O14      O        0.37410    0.63960    0.99680    1.000
    O15      O        0.50850    0.50520    0.11860    1.000
    O16      O        0.59770    0.85480    0.26300    1.000
    O17      O        0.74570    0.15440    0.26390    1.000
    O18      O        0.49070    0.49320    0.38030    1.000
    O19      O        0.62590    0.36040    0.49680    1.000
    O20      O        0.49150    0.49480    0.61860    1.000
