# CIF file generated by openbabel 3.1.0, see https://openbabel.org
data_I
_chemical_name_common 'image0'
_cell_length_a 9.6784
_cell_length_b 11.058
_cell_length_c 11.385
_cell_angle_alpha 105.11
_cell_angle_beta 90.23
_cell_angle_gamma 113.98
_space_group_name_H-M_alt 'P 1'
_space_group_name_Hall 'P 1'
loop_
    _symmetry_equiv_pos_as_xyz
    x,y,z
loop_
    _atom_site_label
    _atom_site_type_symbol
    _atom_site_fract_x
    _atom_site_fract_y
    _atom_site_fract_z
    _atom_site_occupancy
    C1       C        0.77370    0.50300    0.39580    1.000
    C2       C        0.63580    0.50630    0.45380    1.000
    C3       C        0.63790    0.61680    0.54950    1.000
    C4       C        0.77740    0.74870    0.60730    1.000
    C5       C        0.49680    0.39100    0.40540    1.000
    H1       H        0.49540    0.31810    0.34140    1.000
    C6       C        0.75520    0.25170    0.48850    1.000
    C7       C        0.62620    0.11850    0.49490    1.000
    C8       C        0.62170    0.98810    0.44140    1.000
    C9       C        0.75380    0.96990    0.38370    1.000
    C10      C        0.50380    0.12890    0.55400    1.000
    H2       H        0.50670    0.21560    0.59080    1.000
    C11      C        0.81400    0.12810    0.10910    1.000
    C12      C        0.65250    0.06350    0.04890    1.000
    C13      C        0.59610    0.93720    0.95730    1.000
    C14      C        0.70330    0.87530    0.90350    1.000
    C15      C        0.55640    0.12670    0.09130    1.000
    H3       H        0.59420    0.21110    0.15180    1.000
    Nd1      Nd       0.02094    0.42555    0.32470    1.000
    Nd2      Nd       0.00011    0.00530    0.74604    1.000
    O1       O        0.90150    0.55600    0.46500    1.000
    O2       O        0.76090    0.44500    0.28510    1.000
    O3       O        0.88820    0.74870    0.66980    1.000
    O4       O        0.77830    0.85990    0.60020    1.000
    O5       O        0.81060    0.25760    0.39090    1.000
    O6       O        0.79020    0.35040    0.58670    1.000
    O7       O        0.88990    0.05310    0.43170    1.000
    O8       O        0.73150    0.87580    0.28520    1.000
    O9       O        0.88790    0.25730    0.13180    1.000
    O10      O        0.86500    0.04960    0.13380    1.000
    O11      O        0.67060    0.75300    0.89770    1.000
    O12      O        0.81880    0.95590    0.86540    1.000
    Yb1      Yb       0.97906    0.57445    0.67530    1.000
    Yb2      Yb       0.99989    0.99470    0.25396    1.000
    C16      C        0.22630    0.49700    0.60420    1.000
    C17      C        0.36420    0.49370    0.54620    1.000
    C18      C        0.36210    0.38320    0.45050    1.000
    C19      C        0.22260    0.25130    0.39270    1.000
    C20      C        0.50320    0.60900    0.59460    1.000
    H4       H        0.50460    0.68190    0.65860    1.000
    C21      C        0.24480    0.74830    0.51150    1.000
    C22      C        0.37380    0.88150    0.50510    1.000
    C23      C        0.37830    0.01190    0.55860    1.000
    C24      C        0.24620    0.03010    0.61630    1.000
    C25      C        0.49620    0.87110    0.44600    1.000
    H5       H        0.49330    0.78440    0.40920    1.000
    C26      C        0.18600    0.87190    0.89090    1.000
    C27      C        0.34750    0.93650    0.95110    1.000
    C28      C        0.40390    0.06280    0.04270    1.000
    C29      C        0.29670    0.12470    0.09650    1.000
    C30      C        0.44360    0.87330    0.90870    1.000
    H6       H        0.40580    0.78890    0.84820    1.000
    O13      O        0.09850    0.44400    0.53500    1.000
    O14      O        0.23910    0.55500    0.71490    1.000
    O15      O        0.11180    0.25130    0.33020    1.000
    O16      O        0.22170    0.14010    0.39980    1.000
    O17      O        0.18940    0.74240    0.60910    1.000
    O18      O        0.20980    0.64960    0.41330    1.000
    O19      O        0.11010    0.94690    0.56830    1.000
    O20      O        0.26850    0.12420    0.71480    1.000
    O21      O        0.11210    0.74270    0.86820    1.000
    O22      O        0.13500    0.95040    0.86620    1.000
    O23      O        0.32940    0.24700    0.10230    1.000
    O24      O        0.18120    0.04410    0.13460    1.000
