# CIF file generated by openbabel 3.1.0, see https://openbabel.org
data_I
_chemical_name_common 'image0'
_cell_length_a 13.1191
_cell_length_b 13.1191
_cell_length_c 16.014
_cell_angle_alpha 90
_cell_angle_beta 90
_cell_angle_gamma 120
_space_group_name_H-M_alt 'P 1'
_space_group_name_Hall 'P 1'
loop_
    _symmetry_equiv_pos_as_xyz
    x,y,z
loop_
    _atom_site_label
    _atom_site_type_symbol
    _atom_site_fract_x
    _atom_site_fract_y
    _atom_site_fract_z
    _atom_site_occupancy
    Co1      Co       0.47336    0.51793    0.27171    1.000
    C1       C        0.56330    0.69180    0.14600    1.000
    O1       O        0.38120    0.37390    0.37520    1.000
    O2       O        0.47490    0.64070    0.19470    1.000
    C2       C        0.55180    0.76630    0.07870    1.000
    H1       H        0.48550    0.77470    0.07770    1.000
    C3       C        0.33220    0.43170    0.39230    1.000
    O3       O        0.65010    0.68130    0.15090    1.000
    O4       O        0.34100    0.51260    0.34240    1.000
    C4       C        0.54530    0.90260    0.91440    1.000
    H2       H        0.46830    0.86970    0.93350    1.000
    C5       C        0.63230    0.81850    0.02250    1.000
    H3       H        0.69930    0.81200    0.02890    1.000
    C6       C        0.63190    0.88710    0.94930    1.000
    N1       N        0.72750    0.94740    0.90310    1.000
    C7       C        0.26860    0.40880    0.47160    1.000
    H4       H        0.26560    0.35010    0.50580    1.000
    C8       C        0.21540    0.46540    0.49780    1.000
    H5       H        0.21150    0.51880    0.46150    1.000
    C9       C        0.16210    0.44940    0.58020    1.000
    N2       N        0.18330    0.39440    0.64550    1.000
    C10      C        0.08800    0.48330    0.61120    1.000
    H6       H        0.05900    0.52420    0.58140    1.000
    C11      C        0.12400    0.39850    0.71220    1.000
    H7       H        0.12660    0.36980    0.76480    1.000
    C12      C        0.70020    0.99770    0.84400    1.000
    H8       H        0.75320    0.04570    0.80340    1.000
    N3       N        0.06130    0.44870    0.69330    1.000
    N4       N        0.59090    0.97410    0.84730    1.000
    Co2      Co       0.48207    0.95543    0.27171    1.000
    C13      C        0.30820    0.87150    0.14600    1.000
    O5       O        0.62610    0.00730    0.37520    1.000
    O6       O        0.35930    0.83420    0.19470    1.000
    C14      C        0.23370    0.78550    0.07870    1.000
    H9       H        0.22530    0.71080    0.07770    1.000
    C15      C        0.56830    0.90050    0.39230    1.000
    O7       O        0.31870    0.96880    0.15090    1.000
    O8       O        0.48740    0.82840    0.34240    1.000
    C16      C        0.09740    0.64270    0.91440    1.000
    H10      H        0.13030    0.59860    0.93350    1.000
    C17      C        0.18150    0.81380    0.02250    1.000
    H11      H        0.18800    0.88730    0.02890    1.000
    C18      C        0.11290    0.74480    0.94930    1.000
    N5       N        0.05260    0.78010    0.90310    1.000
    C19      C        0.59120    0.85980    0.47160    1.000
    H12      H        0.64990    0.91550    0.50580    1.000
    C20      C        0.53460    0.75000    0.49780    1.000
    H13      H        0.48120    0.69270    0.46150    1.000
    C21      C        0.55060    0.71270    0.58020    1.000
    N6       N        0.60560    0.78890    0.64550    1.000
    C22      C        0.51670    0.60470    0.61120    1.000
    H14      H        0.47580    0.53480    0.58140    1.000
    C23      C        0.60150    0.72550    0.71220    1.000
    H15      H        0.63020    0.75680    0.76480    1.000
    C24      C        0.00230    0.70250    0.84400    1.000
    H16      H        0.95430    0.70750    0.80340    1.000
    N7       N        0.55130    0.61260    0.69330    1.000
    N8       N        0.02590    0.61680    0.84730    1.000
    Co3      Co       0.04457    0.52664    0.27171    1.000
    C25      C        0.12850    0.43670    0.14600    1.000
    O9       O        0.99270    0.61880    0.37520    1.000
    O10      O        0.16580    0.52510    0.19470    1.000
    C26      C        0.21450    0.44820    0.07870    1.000
    H17      H        0.28920    0.51450    0.07770    1.000
    C27      C        0.09950    0.66780    0.39230    1.000
    O11      O        0.03120    0.34990    0.15090    1.000
    O12      O        0.17160    0.65900    0.34240    1.000
    C28      C        0.35730    0.45470    0.91440    1.000
    H18      H        0.40140    0.53170    0.93350    1.000
    C29      C        0.18620    0.36770    0.02250    1.000
    H19      H        0.11270    0.30070    0.02890    1.000
    C30      C        0.25520    0.36810    0.94930    1.000
    N9       N        0.21990    0.27250    0.90310    1.000
    C31      C        0.14020    0.73140    0.47160    1.000
    H20      H        0.08450    0.73440    0.50580    1.000
    C32      C        0.25000    0.78460    0.49780    1.000
    H21      H        0.30730    0.78850    0.46150    1.000
    C33      C        0.28730    0.83790    0.58020    1.000
    N10      N        0.21110    0.81670    0.64550    1.000
    C34      C        0.39530    0.91200    0.61120    1.000
    H22      H        0.46520    0.94100    0.58140    1.000
    C35      C        0.27450    0.87600    0.71220    1.000
    H23      H        0.24320    0.87340    0.76480    1.000
    C36      C        0.29750    0.29980    0.84400    1.000
    H24      H        0.29250    0.24680    0.80340    1.000
    N11      N        0.38740    0.93870    0.69330    1.000
    N12      N        0.38320    0.40910    0.84730    1.000
    Co4      Co       0.52664    0.48207    0.77171    1.000
    C37      C        0.43670    0.30820    0.64600    1.000
    O13      O        0.61880    0.62610    0.87520    1.000
    O14      O        0.52510    0.35930    0.69470    1.000
    C38      C        0.44820    0.23370    0.57870    1.000
    H25      H        0.51450    0.22530    0.57770    1.000
    C39      C        0.66780    0.56830    0.89230    1.000
    O15      O        0.34990    0.31870    0.65090    1.000
    O16      O        0.65900    0.48740    0.84240    1.000
    C40      C        0.45470    0.09740    0.41440    1.000
    H26      H        0.53170    0.13030    0.43350    1.000
    C41      C        0.36770    0.18150    0.52250    1.000
    H27      H        0.30070    0.18800    0.52890    1.000
    C42      C        0.36810    0.11290    0.44930    1.000
    N13      N        0.27250    0.05260    0.40310    1.000
    C43      C        0.73140    0.59120    0.97160    1.000
    H28      H        0.73440    0.64990    0.00580    1.000
    C44      C        0.78460    0.53460    0.99780    1.000
    H29      H        0.78850    0.48120    0.96150    1.000
    C45      C        0.83790    0.55060    0.08020    1.000
    N14      N        0.81670    0.60560    0.14550    1.000
    C46      C        0.91200    0.51670    0.11120    1.000
    H30      H        0.94100    0.47580    0.08140    1.000
    C47      C        0.87600    0.60150    0.21220    1.000
    H31      H        0.87340    0.63020    0.26480    1.000
    C48      C        0.29980    0.00230    0.34400    1.000
    H32      H        0.24680    0.95430    0.30340    1.000
    N15      N        0.93870    0.55130    0.19330    1.000
    N16      N        0.40910    0.02590    0.34730    1.000
    Co5      Co       0.51793    0.04457    0.77171    1.000
    C49      C        0.69180    0.12850    0.64600    1.000
    O17      O        0.37390    0.99270    0.87520    1.000
    O18      O        0.64070    0.16580    0.69470    1.000
    C50      C        0.76630    0.21450    0.57870    1.000
    H33      H        0.77470    0.28920    0.57770    1.000
    C51      C        0.43170    0.09950    0.89230    1.000
    O19      O        0.68130    0.03120    0.65090    1.000
    O20      O        0.51260    0.17160    0.84240    1.000
    C52      C        0.90260    0.35730    0.41440    1.000
    H34      H        0.86970    0.40140    0.43350    1.000
    C53      C        0.81850    0.18620    0.52250    1.000
    H35      H        0.81200    0.11270    0.52890    1.000
    C54      C        0.88710    0.25520    0.44930    1.000
    N17      N        0.94740    0.21990    0.40310    1.000
    C55      C        0.40880    0.14020    0.97160    1.000
    H36      H        0.35010    0.08450    0.00580    1.000
    C56      C        0.46540    0.25000    0.99780    1.000
    H37      H        0.51880    0.30730    0.96150    1.000
    C57      C        0.44940    0.28730    0.08020    1.000
    N18      N        0.39440    0.21110    0.14550    1.000
    C58      C        0.48330    0.39530    0.11120    1.000
    H38      H        0.52420    0.46520    0.08140    1.000
    C59      C        0.39850    0.27450    0.21220    1.000
    H39      H        0.36980    0.24320    0.26480    1.000
    C60      C        0.99770    0.29750    0.34400    1.000
    H40      H        0.04570    0.29250    0.30340    1.000
    N19      N        0.44870    0.38740    0.19330    1.000
    N20      N        0.97410    0.38320    0.34730    1.000
    Co6      Co       0.95543    0.47336    0.77171    1.000
    C61      C        0.87150    0.56330    0.64600    1.000
    O21      O        0.00730    0.38120    0.87520    1.000
    O22      O        0.83420    0.47490    0.69470    1.000
    C62      C        0.78550    0.55180    0.57870    1.000
    H41      H        0.71080    0.48550    0.57770    1.000
    C63      C        0.90050    0.33220    0.89230    1.000
    O23      O        0.96880    0.65010    0.65090    1.000
    O24      O        0.82840    0.34100    0.84240    1.000
    C64      C        0.64270    0.54530    0.41440    1.000
    H42      H        0.59860    0.46830    0.43350    1.000
    C65      C        0.81380    0.63230    0.52250    1.000
    H43      H        0.88730    0.69930    0.52890    1.000
    C66      C        0.74480    0.63190    0.44930    1.000
    N21      N        0.78010    0.72750    0.40310    1.000
    C67      C        0.85980    0.26860    0.97160    1.000
    H44      H        0.91550    0.26560    0.00580    1.000
    C68      C        0.75000    0.21540    0.99780    1.000
    H45      H        0.69270    0.21150    0.96150    1.000
    C69      C        0.71270    0.16210    0.08020    1.000
    N22      N        0.78890    0.18330    0.14550    1.000
    C70      C        0.60470    0.08800    0.11120    1.000
    H46      H        0.53480    0.05900    0.08140    1.000
    C71      C        0.72550    0.12400    0.21220    1.000
    H47      H        0.75680    0.12660    0.26480    1.000
    C72      C        0.70250    0.70020    0.34400    1.000
    H48      H        0.70750    0.75320    0.30340    1.000
    N23      N        0.61260    0.06130    0.19330    1.000
    N24      N        0.61680    0.59090    0.34730    1.000
    Na1      Na       0.33333    0.66667    0.27040    1.000
    Na2      Na       0.66667    0.33333    0.77040    1.000
