# CIF file generated by openbabel 3.1.0, see https://openbabel.org
data_I
_chemical_name_common 'image0'
_cell_length_a 20.395
_cell_length_b 6.941
_cell_length_c 20.07
_cell_angle_alpha 90
_cell_angle_beta 119.18
_cell_angle_gamma 90
_space_group_name_H-M_alt 'P 1'
_space_group_name_Hall 'P 1'
loop_
    _symmetry_equiv_pos_as_xyz
    x,y,z
loop_
    _atom_site_label
    _atom_site_type_symbol
    _atom_site_fract_x
    _atom_site_fract_y
    _atom_site_fract_z
    _atom_site_occupancy
    Ni1      Ni       0.42071    0.51044    0.13041    1.000
    O1       O        0.43400    0.48880    0.53290    1.000
    O2       O        0.32180    0.48420    0.52110    1.000
    C1       C        0.36480    0.48480    0.49120    1.000
    C2       C        0.33140    0.48250    0.40510    1.000
    C3       C        0.37810    0.49320    0.37430    1.000
    H1       H        0.43100    0.50090    0.40620    1.000
    C4       C        0.25590    0.46500    0.36130    1.000
    H2       H        0.22550    0.45570    0.38500    1.000
    O3       O        0.36460    0.50670    0.18820    1.000
    O4       O        0.46520    0.51140    0.30350    1.000
    O5       O        0.10690    0.40400    0.27530    1.000
    O6       O        0.10540    0.45770    0.16570    1.000
    C5       C        0.39720    0.50530    0.26130    1.000
    C6       C        0.34660    0.49270    0.29510    1.000
    C7       C        0.26870    0.47660    0.24910    1.000
    H3       H        0.24760    0.47670    0.19510    1.000
    C8       C        0.22170    0.46030    0.28100    1.000
    C9       C        0.13920    0.43960    0.23730    1.000
    C10      C        0.47990    0.10780    0.14210    1.000
    H4       H        0.52370    0.17440    0.14970    1.000
    N1       N        0.41960    0.21120    0.13110    1.000
    N2       N        0.42110    0.80590    0.13240    1.000
    C11      C        0.48070    0.91450    0.14290    1.000
    H5       H        0.52520    0.85060    0.15110    1.000
    C12      C        0.36350    0.91360    0.12680    1.000
    H6       H        0.32090    0.84900    0.12340    1.000
    C13      C        0.36310    0.10650    0.12570    1.000
    H7       H        0.31990    0.17150    0.12070    1.000
    C14      C        0.05540    0.00210    0.30770    1.000
    H8       H        0.09500    0.06830    0.34930    1.000
    C15      C        0.05360    0.80120    0.30560    1.000
    H9       H        0.09360    0.73510    0.34680    1.000
    Ni2      Ni       0.57929    0.51044    0.36959    1.000
    O7       O        0.56600    0.48880    0.96710    1.000
    O8       O        0.67820    0.48420    0.97890    1.000
    C16      C        0.63520    0.48480    0.00880    1.000
    C17      C        0.66860    0.48250    0.09490    1.000
    C18      C        0.62190    0.49320    0.12570    1.000
    H10      H        0.56900    0.50090    0.09380    1.000
    C19      C        0.74410    0.46500    0.13870    1.000
    H11      H        0.77450    0.45570    0.11500    1.000
    O9       O        0.63540    0.50670    0.31180    1.000
    O10      O        0.53480    0.51140    0.19650    1.000
    O11      O        0.89310    0.40400    0.22470    1.000
    O12      O        0.89460    0.45770    0.33430    1.000
    C20      C        0.60280    0.50530    0.23870    1.000
    C21      C        0.65340    0.49270    0.20490    1.000
    C22      C        0.73130    0.47660    0.25090    1.000
    H12      H        0.75240    0.47670    0.30490    1.000
    C23      C        0.77830    0.46030    0.21900    1.000
    C24      C        0.86080    0.43960    0.26270    1.000
    C25      C        0.52010    0.10780    0.35790    1.000
    H13      H        0.47630    0.17440    0.35030    1.000
    N3       N        0.58040    0.21120    0.36890    1.000
    N4       N        0.57890    0.80590    0.36760    1.000
    C26      C        0.51930    0.91450    0.35710    1.000
    H14      H        0.47480    0.85060    0.34890    1.000
    C27      C        0.63650    0.91360    0.37320    1.000
    H15      H        0.67910    0.84900    0.37660    1.000
    C28      C        0.63690    0.10650    0.37430    1.000
    H16      H        0.68010    0.17150    0.37930    1.000
    C29      C        0.94460    0.00210    0.19230    1.000
    H17      H        0.90500    0.06830    0.15070    1.000
    C30      C        0.94640    0.80120    0.19440    1.000
    H18      H        0.90640    0.73510    0.15320    1.000
    Ni3      Ni       0.57929    0.48956    0.86959    1.000
    O13      O        0.56600    0.51120    0.46710    1.000
    O14      O        0.67820    0.51580    0.47890    1.000
    C31      C        0.63520    0.51520    0.50880    1.000
    C32      C        0.66860    0.51750    0.59490    1.000
    C33      C        0.62190    0.50680    0.62570    1.000
    H19      H        0.56900    0.49910    0.59380    1.000
    C34      C        0.74410    0.53500    0.63870    1.000
    H20      H        0.77450    0.54430    0.61500    1.000
    O15      O        0.63540    0.49330    0.81180    1.000
    O16      O        0.53480    0.48860    0.69650    1.000
    O17      O        0.89310    0.59600    0.72470    1.000
    O18      O        0.89460    0.54230    0.83430    1.000
    C35      C        0.60280    0.49470    0.73870    1.000
    C36      C        0.65340    0.50730    0.70490    1.000
    C37      C        0.73130    0.52340    0.75090    1.000
    H21      H        0.75240    0.52330    0.80490    1.000
    C38      C        0.77830    0.53970    0.71900    1.000
    C39      C        0.86080    0.56040    0.76270    1.000
    C40      C        0.52010    0.89220    0.85790    1.000
    H22      H        0.47630    0.82560    0.85030    1.000
    N5       N        0.58040    0.78880    0.86890    1.000
    N6       N        0.57890    0.19410    0.86760    1.000
    C41      C        0.51930    0.08550    0.85710    1.000
    H23      H        0.47480    0.14940    0.84890    1.000
    C42      C        0.63650    0.08640    0.87320    1.000
    H24      H        0.67910    0.15100    0.87660    1.000
    C43      C        0.63690    0.89350    0.87430    1.000
    H25      H        0.68010    0.82850    0.87930    1.000
    C44      C        0.94460    0.99790    0.69230    1.000
    H26      H        0.90500    0.93170    0.65070    1.000
    C45      C        0.94640    0.19880    0.69440    1.000
    H27      H        0.90640    0.26490    0.65320    1.000
    Ni4      Ni       0.42071    0.48956    0.63041    1.000
    O19      O        0.43400    0.51120    0.03290    1.000
    O20      O        0.32180    0.51580    0.02110    1.000
    C46      C        0.36480    0.51520    0.99120    1.000
    C47      C        0.33140    0.51750    0.90510    1.000
    C48      C        0.37810    0.50680    0.87430    1.000
    H28      H        0.43100    0.49910    0.90620    1.000
    C49      C        0.25590    0.53500    0.86130    1.000
    H29      H        0.22550    0.54430    0.88500    1.000
    O21      O        0.36460    0.49330    0.68820    1.000
    O22      O        0.46520    0.48860    0.80350    1.000
    O23      O        0.10690    0.59600    0.77530    1.000
    O24      O        0.10540    0.54230    0.66570    1.000
    C50      C        0.39720    0.49470    0.76130    1.000
    C51      C        0.34660    0.50730    0.79510    1.000
    C52      C        0.26870    0.52340    0.74910    1.000
    H30      H        0.24760    0.52330    0.69510    1.000
    C53      C        0.22170    0.53970    0.78100    1.000
    C54      C        0.13920    0.56040    0.73730    1.000
    C55      C        0.47990    0.89220    0.64210    1.000
    H31      H        0.52370    0.82560    0.64970    1.000
    N7       N        0.41960    0.78880    0.63110    1.000
    N8       N        0.42110    0.19410    0.63240    1.000
    C56      C        0.48070    0.08550    0.64290    1.000
    H32      H        0.52520    0.14940    0.65110    1.000
    C57      C        0.36350    0.08640    0.62680    1.000
    H33      H        0.32090    0.15100    0.62340    1.000
    C58      C        0.36310    0.89350    0.62570    1.000
    H34      H        0.31990    0.82850    0.62070    1.000
    C59      C        0.05540    0.99790    0.80770    1.000
    H35      H        0.09500    0.93170    0.84930    1.000
    C60      C        0.05360    0.19880    0.80560    1.000
    H36      H        0.09360    0.26490    0.84680    1.000
    Ni5      Ni       0.00000    0.40230    0.25000    1.000
    N9       N        0.00000    0.10020    0.25000    1.000
    N10      N        0.00000    0.69290    0.25000    1.000
    Ni6      Ni       0.00000    0.59770    0.75000    1.000
    N11      N        0.00000    0.89980    0.75000    1.000
    N12      N        0.00000    0.30710    0.75000    1.000
