# CIF file generated by openbabel 3.1.0, see https://openbabel.org
data_I
_chemical_name_common 'image0'
_cell_length_a 14.746
_cell_length_b 11.038
_cell_length_c 12.306
_cell_angle_alpha 90
_cell_angle_beta 90
_cell_angle_gamma 90
_space_group_name_H-M_alt 'P 1'
_space_group_name_Hall 'P 1'
loop_
    _symmetry_equiv_pos_as_xyz
    x,y,z
loop_
    _atom_site_label
    _atom_site_type_symbol
    _atom_site_fract_x
    _atom_site_fract_y
    _atom_site_fract_z
    _atom_site_occupancy
    O1       O        0.23880    0.90810    0.36850    1.000
    O2       O        0.11830    0.83540    0.45000    1.000
    O3       O        0.20930    0.83740    0.35150    1.000
    O4       O        0.13760    0.90700    0.48330    1.000
    C1       C        0.02030    0.04120    0.34190    1.000
    H1       H        0.00230    0.03590    0.41410    1.000
    C2       C        0.96850    0.11020    0.26900    1.000
    H2       H        0.91720    0.15110    0.29300    1.000
    C3       C        0.99410    0.11670    0.16230    1.000
    C4       C        0.09660    0.98190    0.30900    1.000
    C5       C        0.12050    0.98690    0.20190    1.000
    H3       H        0.17120    0.94450    0.17780    1.000
    C6       C        0.07060    0.05350    0.12950    1.000
    H4       H        0.08840    0.05650    0.05710    1.000
    C7       C        0.15300    0.90460    0.38430    1.000
    C8       C        0.84850    0.19280    0.08280    1.000
    H5       H        0.81710    0.15690    0.13980    1.000
    C9       C        0.94180    0.18880    0.08120    1.000
    O5       O        0.26120    0.59190    0.36850    1.000
    O6       O        0.38170    0.66460    0.45000    1.000
    O7       O        0.29070    0.66260    0.35150    1.000
    O8       O        0.36240    0.59300    0.48330    1.000
    C10      C        0.47970    0.45880    0.34190    1.000
    H6       H        0.49770    0.46410    0.41410    1.000
    C11      C        0.53150    0.38980    0.26900    1.000
    H7       H        0.58280    0.34890    0.29300    1.000
    C12      C        0.50590    0.38330    0.16230    1.000
    C13      C        0.40340    0.51810    0.30900    1.000
    C14      C        0.37950    0.51310    0.20190    1.000
    H8       H        0.32880    0.55550    0.17780    1.000
    C15      C        0.42940    0.44650    0.12950    1.000
    H9       H        0.41160    0.44350    0.05710    1.000
    C16      C        0.34700    0.59540    0.38430    1.000
    C17      C        0.65150    0.30720    0.08280    1.000
    H10      H        0.68290    0.34310    0.13980    1.000
    C18      C        0.55820    0.31120    0.08120    1.000
    O9       O        0.26120    0.90810    0.63150    1.000
    O10      O        0.38170    0.83540    0.55000    1.000
    O11      O        0.29070    0.83740    0.64850    1.000
    O12      O        0.36240    0.90700    0.51670    1.000
    C19      C        0.47970    0.04120    0.65810    1.000
    H11      H        0.49770    0.03590    0.58590    1.000
    C20      C        0.53150    0.11020    0.73100    1.000
    H12      H        0.58280    0.15110    0.70700    1.000
    C21      C        0.50590    0.11670    0.83770    1.000
    C22      C        0.40340    0.98190    0.69100    1.000
    C23      C        0.37950    0.98690    0.79810    1.000
    H13      H        0.32880    0.94450    0.82220    1.000
    C24      C        0.42940    0.05350    0.87050    1.000
    H14      H        0.41160    0.05650    0.94290    1.000
    C25      C        0.34700    0.90460    0.61570    1.000
    C26      C        0.65150    0.19280    0.91720    1.000
    H15      H        0.68290    0.15690    0.86020    1.000
    C27      C        0.55820    0.18880    0.91880    1.000
    O13      O        0.23880    0.59190    0.63150    1.000
    O14      O        0.11830    0.66460    0.55000    1.000
    O15      O        0.20930    0.66260    0.64850    1.000
    O16      O        0.13760    0.59300    0.51670    1.000
    C28      C        0.02030    0.45880    0.65810    1.000
    H16      H        0.00230    0.46410    0.58590    1.000
    C29      C        0.96850    0.38980    0.73100    1.000
    H17      H        0.91720    0.34890    0.70700    1.000
    C30      C        0.99410    0.38330    0.83770    1.000
    C31      C        0.09660    0.51810    0.69100    1.000
    C32      C        0.12050    0.51310    0.79810    1.000
    H18      H        0.17120    0.55550    0.82220    1.000
    C33      C        0.07060    0.44650    0.87050    1.000
    H19      H        0.08840    0.44350    0.94290    1.000
    C34      C        0.15300    0.59540    0.61570    1.000
    C35      C        0.84850    0.30720    0.91720    1.000
    H20      H        0.81710    0.34310    0.86020    1.000
    C36      C        0.94180    0.31120    0.91880    1.000
    In1      In       0.25000    0.75000    0.50000    1.000
    C37      C        0.80090    0.25000    0.00000    1.000
    C38      C        0.98790    0.25000    0.00000    1.000
    H21      H        0.05090    0.25000    0.00000    1.000
    C39      C        0.69910    0.25000    0.00000    1.000
    C40      C        0.51210    0.25000    0.00000    1.000
    H22      H        0.44910    0.25000    0.00000    1.000
    O17      O        0.76120    0.09190    0.63150    1.000
    O18      O        0.88170    0.16460    0.55000    1.000
    O19      O        0.79070    0.16260    0.64850    1.000
    O20      O        0.86240    0.09300    0.51670    1.000
    C41      C        0.97970    0.95880    0.65810    1.000
    H23      H        0.99770    0.96410    0.58590    1.000
    C42      C        0.03150    0.88980    0.73100    1.000
    H24      H        0.08280    0.84890    0.70700    1.000
    C43      C        0.00590    0.88330    0.83770    1.000
    C44      C        0.90340    0.01810    0.69100    1.000
    C45      C        0.87950    0.01310    0.79810    1.000
    H25      H        0.82880    0.05550    0.82220    1.000
    C46      C        0.92940    0.94650    0.87050    1.000
    H26      H        0.91160    0.94350    0.94290    1.000
    C47      C        0.84700    0.09540    0.61570    1.000
    C48      C        0.15150    0.80720    0.91720    1.000
    H27      H        0.18290    0.84310    0.86020    1.000
    C49      C        0.05820    0.81120    0.91880    1.000
    O21      O        0.73880    0.40810    0.63150    1.000
    O22      O        0.61830    0.33540    0.55000    1.000
    O23      O        0.70930    0.33740    0.64850    1.000
    O24      O        0.63760    0.40700    0.51670    1.000
    C50      C        0.52030    0.54120    0.65810    1.000
    H28      H        0.50230    0.53590    0.58590    1.000
    C51      C        0.46850    0.61020    0.73100    1.000
    H29      H        0.41720    0.65110    0.70700    1.000
    C52      C        0.49410    0.61670    0.83770    1.000
    C53      C        0.59660    0.48190    0.69100    1.000
    C54      C        0.62050    0.48690    0.79810    1.000
    H30      H        0.67120    0.44450    0.82220    1.000
    C55      C        0.57060    0.55350    0.87050    1.000
    H31      H        0.58840    0.55650    0.94290    1.000
    C56      C        0.65300    0.40460    0.61570    1.000
    C57      C        0.34850    0.69280    0.91720    1.000
    H32      H        0.31710    0.65690    0.86020    1.000
    C58      C        0.44180    0.68880    0.91880    1.000
    O25      O        0.73880    0.09190    0.36850    1.000
    O26      O        0.61830    0.16460    0.45000    1.000
    O27      O        0.70930    0.16260    0.35150    1.000
    O28      O        0.63760    0.09300    0.48330    1.000
    C59      C        0.52030    0.95880    0.34190    1.000
    H33      H        0.50230    0.96410    0.41410    1.000
    C60      C        0.46850    0.88980    0.26900    1.000
    H34      H        0.41720    0.84890    0.29300    1.000
    C61      C        0.49410    0.88330    0.16230    1.000
    C62      C        0.59660    0.01810    0.30900    1.000
    C63      C        0.62050    0.01310    0.20190    1.000
    H35      H        0.67120    0.05550    0.17780    1.000
    C64      C        0.57060    0.94650    0.12950    1.000
    H36      H        0.58840    0.94350    0.05710    1.000
    C65      C        0.65300    0.09540    0.38430    1.000
    C66      C        0.34850    0.80720    0.08280    1.000
    H37      H        0.31710    0.84310    0.13980    1.000
    C67      C        0.44180    0.81120    0.08120    1.000
    O29      O        0.76120    0.40810    0.36850    1.000
    O30      O        0.88170    0.33540    0.45000    1.000
    O31      O        0.79070    0.33740    0.35150    1.000
    O32      O        0.86240    0.40700    0.48330    1.000
    C68      C        0.97970    0.54120    0.34190    1.000
    H38      H        0.99770    0.53590    0.41410    1.000
    C69      C        0.03150    0.61020    0.26900    1.000
    H39      H        0.08280    0.65110    0.29300    1.000
    C70      C        0.00590    0.61670    0.16230    1.000
    C71      C        0.90340    0.48190    0.30900    1.000
    C72      C        0.87950    0.48690    0.20190    1.000
    H40      H        0.82880    0.44450    0.17780    1.000
    C73      C        0.92940    0.55350    0.12950    1.000
    H41      H        0.91160    0.55650    0.05710    1.000
    C74      C        0.84700    0.40460    0.38430    1.000
    C75      C        0.15150    0.69280    0.08280    1.000
    H42      H        0.18290    0.65690    0.13980    1.000
    C76      C        0.05820    0.68880    0.08120    1.000
    In2      In       0.75000    0.25000    0.50000    1.000
    C77      C        0.19910    0.75000    0.00000    1.000
    C78      C        0.01210    0.75000    0.00000    1.000
    H43      H        0.94910    0.75000    0.00000    1.000
    C79      C        0.30090    0.75000    0.00000    1.000
    C80      C        0.48790    0.75000    0.00000    1.000
    H44      H        0.55090    0.75000    0.00000    1.000
