# CIF file generated by openbabel 3.1.0, see https://openbabel.org
data_I
_chemical_name_common 'image0'
_cell_length_a 8.4363
_cell_length_b 13.1485
_cell_length_c 17.833
_cell_angle_alpha 90
_cell_angle_beta 90
_cell_angle_gamma 90
_space_group_name_H-M_alt 'P 1'
_space_group_name_Hall 'P 1'
loop_
    _symmetry_equiv_pos_as_xyz
    x,y,z
loop_
    _atom_site_label
    _atom_site_type_symbol
    _atom_site_fract_x
    _atom_site_fract_y
    _atom_site_fract_z
    _atom_site_occupancy
    C1       C        0.61930    0.06010    0.36990    1.000
    C2       C        0.68200    0.99490    0.43310    1.000
    C3       C        0.76500    0.03920    0.49120    1.000
    H1       H        0.77440    0.10970    0.49250    1.000
    C4       C        0.83430    0.98140    0.54810    1.000
    H2       H        0.90030    0.01120    0.58360    1.000
    C5       C        0.80240    0.88050    0.54980    1.000
    H3       H        0.84440    0.84130    0.58840    1.000
    C6       C        0.65550    0.89100    0.43930    1.000
    C7       C        0.55580    0.83000    0.38650    1.000
    C8       C        0.77960    0.31390    0.57310    1.000
    C9       C        0.69540    0.38340    0.51820    1.000
    C10      C        0.61400    0.33910    0.45840    1.000
    H4       H        0.61180    0.26870    0.45360    1.000
    C11      C        0.53700    0.39780    0.40710    1.000
    H5       H        0.48100    0.36820    0.36790    1.000
    C12      C        0.54460    0.50230    0.41450    1.000
    H6       H        0.49350    0.54320    0.37950    1.000
    C13      C        0.69840    0.48880    0.52200    1.000
    C14      C        0.78450    0.54910    0.58210    1.000
    N1       N        0.71200    0.83520    0.49760    1.000
    N2       N        0.62390    0.54580    0.47110    1.000
    O1       O        0.68790    0.05360    0.30610    1.000
    O2       O        0.51090    0.11970    0.38590    1.000
    O3       O        0.48960    0.87400    0.33310    1.000
    O4       O        0.54440    0.73580    0.40050    1.000
    O5       O        0.77300    0.64490    0.57700    1.000
    O6       O        0.85610    0.50560    0.63230    1.000
    O7       O        0.91540    0.28520    0.56080    1.000
    O8       O        0.69120    0.28320    0.62590    1.000
    Cu1      Cu       0.64650    0.69147    0.49257    1.000
    U1       U        0.81798    0.17818    0.23286    1.000
    C15      C        0.38070    0.93990    0.86990    1.000
    C16      C        0.31800    0.00510    0.93310    1.000
    C17      C        0.23500    0.96080    0.99120    1.000
    H7       H        0.22560    0.89030    0.99250    1.000
    C18      C        0.16570    0.01860    0.04810    1.000
    H8       H        0.09970    0.98880    0.08360    1.000
    C19      C        0.19760    0.11950    0.04980    1.000
    H9       H        0.15560    0.15870    0.08840    1.000
    C20      C        0.34450    0.10900    0.93930    1.000
    C21      C        0.44420    0.17000    0.88650    1.000
    C22      C        0.22040    0.68610    0.07310    1.000
    C23      C        0.30460    0.61660    0.01820    1.000
    C24      C        0.38600    0.66090    0.95840    1.000
    H10      H        0.38820    0.73130    0.95360    1.000
    C25      C        0.46300    0.60220    0.90710    1.000
    H11      H        0.51900    0.63180    0.86790    1.000
    C26      C        0.45540    0.49770    0.91450    1.000
    H12      H        0.50650    0.45680    0.87950    1.000
    C27      C        0.30160    0.51120    0.02200    1.000
    C28      C        0.21550    0.45090    0.08210    1.000
    N3       N        0.28800    0.16480    0.99760    1.000
    N4       N        0.37610    0.45420    0.97110    1.000
    O9       O        0.31210    0.94640    0.80610    1.000
    O10      O        0.48910    0.88030    0.88590    1.000
    O11      O        0.51040    0.12600    0.83310    1.000
    O12      O        0.45560    0.26420    0.90050    1.000
    O13      O        0.22700    0.35510    0.07700    1.000
    O14      O        0.14390    0.49440    0.13230    1.000
    O15      O        0.08460    0.71480    0.06080    1.000
    O16      O        0.30880    0.71680    0.12590    1.000
    Cu2      Cu       0.35350    0.30853    0.99257    1.000
    U2       U        0.18202    0.82182    0.73286    1.000
    C29      C        0.11930    0.93990    0.36990    1.000
    C30      C        0.18200    0.00510    0.43310    1.000
    C31      C        0.26500    0.96080    0.49120    1.000
    H13      H        0.27440    0.89030    0.49250    1.000
    C32      C        0.33430    0.01860    0.54810    1.000
    H14      H        0.40030    0.98880    0.58360    1.000
    C33      C        0.30240    0.11950    0.54980    1.000
    H15      H        0.34440    0.15870    0.58840    1.000
    C34      C        0.15550    0.10900    0.43930    1.000
    C35      C        0.05580    0.17000    0.38650    1.000
    C36      C        0.27960    0.68610    0.57310    1.000
    C37      C        0.19540    0.61660    0.51820    1.000
    C38      C        0.11400    0.66090    0.45840    1.000
    H16      H        0.11180    0.73130    0.45360    1.000
    C39      C        0.03700    0.60220    0.40710    1.000
    H17      H        0.98100    0.63180    0.36790    1.000
    C40      C        0.04460    0.49770    0.41450    1.000
    H18      H        0.99350    0.45680    0.37950    1.000
    C41      C        0.19840    0.51120    0.52200    1.000
    C42      C        0.28450    0.45090    0.58210    1.000
    N5       N        0.21200    0.16480    0.49760    1.000
    N6       N        0.12390    0.45420    0.47110    1.000
    O17      O        0.18790    0.94640    0.30610    1.000
    O18      O        0.01090    0.88030    0.38590    1.000
    O19      O        0.98960    0.12600    0.33310    1.000
    O20      O        0.04440    0.26420    0.40050    1.000
    O21      O        0.27300    0.35510    0.57700    1.000
    O22      O        0.35610    0.49440    0.63230    1.000
    O23      O        0.41540    0.71480    0.56080    1.000
    O24      O        0.19120    0.71680    0.62590    1.000
    Cu3      Cu       0.14650    0.30853    0.49257    1.000
    U3       U        0.31798    0.82182    0.23286    1.000
    C43      C        0.88070    0.06010    0.86990    1.000
    C44      C        0.81800    0.99490    0.93310    1.000
    C45      C        0.73500    0.03920    0.99120    1.000
    H19      H        0.72560    0.10970    0.99250    1.000
    C46      C        0.66570    0.98140    0.04810    1.000
    H20      H        0.59970    0.01120    0.08360    1.000
    C47      C        0.69760    0.88050    0.04980    1.000
    H21      H        0.65560    0.84130    0.08840    1.000
    C48      C        0.84450    0.89100    0.93930    1.000
    C49      C        0.94420    0.83000    0.88650    1.000
    C50      C        0.72040    0.31390    0.07310    1.000
    C51      C        0.80460    0.38340    0.01820    1.000
    C52      C        0.88600    0.33910    0.95840    1.000
    H22      H        0.88820    0.26870    0.95360    1.000
    C53      C        0.96300    0.39780    0.90710    1.000
    H23      H        0.01900    0.36820    0.86790    1.000
    C54      C        0.95540    0.50230    0.91450    1.000
    H24      H        0.00650    0.54320    0.87950    1.000
    C55      C        0.80160    0.48880    0.02200    1.000
    C56      C        0.71550    0.54910    0.08210    1.000
    N7       N        0.78800    0.83520    0.99760    1.000
    N8       N        0.87610    0.54580    0.97110    1.000
    O25      O        0.81210    0.05360    0.80610    1.000
    O26      O        0.98910    0.11970    0.88590    1.000
    O27      O        0.01040    0.87400    0.83310    1.000
    O28      O        0.95560    0.73580    0.90050    1.000
    O29      O        0.72700    0.64490    0.07700    1.000
    O30      O        0.64390    0.50560    0.13230    1.000
    O31      O        0.58460    0.28520    0.06080    1.000
    O32      O        0.80880    0.28320    0.12590    1.000
    Cu4      Cu       0.85350    0.69147    0.99257    1.000
    U4       U        0.68202    0.17818    0.73286    1.000
