# CIF file generated by openbabel 3.1.0, see https://openbabel.org
data_I
_chemical_name_common 'ILOTOT_clean'
_cell_length_a 10.5305
_cell_length_b 13.842
_cell_length_c 14.1361
_cell_angle_alpha 60.6859
_cell_angle_beta 82.6052
_cell_angle_gamma 74.7589
_space_group_name_H-M_alt 'P 1'
_space_group_name_Hall 'P 1'
loop_
    _symmetry_equiv_pos_as_xyz
    x,y,z
loop_
    _atom_site_label
    _atom_site_type_symbol
    _atom_site_fract_x
    _atom_site_fract_y
    _atom_site_fract_z
    _atom_site_occupancy
    Co1      Co       0.25000    0.58283    0.83434    1.000
    Co2      Co       0.75000    0.41717    0.16566    1.000
    Co3      Co       0.50000    0.50000    0.00000    1.000
    Co4      Co       0.00000    0.50000    0.00000    1.000
    H1       H        0.26520    0.70010    0.14000    1.000
    H2       H        0.15090    0.82340    0.20620    1.000
    H3       H        0.70190    0.73420    0.75300    1.000
    H4       H        0.42010    0.81930    0.54400    1.000
    H5       H        0.83180    0.88280    0.04140    1.000
    H6       H        0.94440    0.75690    0.97940    1.000
    H7       H        0.82440    0.84370    0.61420    1.000
    H8       H        0.54220    0.92800    0.40200    1.000
    H9       H        0.88840    0.09430    0.27260    1.000
    H10      H        0.81890    0.12290    0.16740    1.000
    H11      H        0.98510    0.90710    0.29400    1.000
    H12      H        0.03460    0.00360    0.18920    1.000
    H13      H        0.71370    0.96460    0.28540    1.000
    H14      H        0.66050    0.07680    0.29540    1.000
    H15      H        0.23480    0.15990    0.14000    1.000
    H16      H        0.34910    0.97040    0.20620    1.000
    H17      H        0.79810    0.51280    0.75300    1.000
    H18      H        0.07990    0.63670    0.54400    1.000
    H19      H        0.66820    0.07580    0.04140    1.000
    H20      H        0.55560    0.26370    0.97940    1.000
    H21      H        0.67560    0.54210    0.61420    1.000
    H22      H        0.95780    0.67000    0.40200    1.000
    H23      H        0.61160    0.63310    0.27260    1.000
    H24      H        0.68110    0.70970    0.16740    1.000
    H25      H        0.51490    0.79890    0.29400    1.000
    H26      H        0.46540    0.80720    0.18920    1.000
    H27      H        0.78630    0.75000    0.28540    1.000
    H28      H        0.83950    0.62780    0.29540    1.000
    H29      H        0.73480    0.29990    0.86000    1.000
    H30      H        0.84910    0.17660    0.79380    1.000
    H31      H        0.29810    0.26580    0.24700    1.000
    H32      H        0.57990    0.18070    0.45600    1.000
    H33      H        0.16820    0.11720    0.95860    1.000
    H34      H        0.05560    0.24310    0.02060    1.000
    H35      H        0.17560    0.15630    0.38580    1.000
    H36      H        0.45780    0.07200    0.59800    1.000
    H37      H        0.11160    0.90570    0.72740    1.000
    H38      H        0.18110    0.87710    0.83260    1.000
    H39      H        0.01490    0.09290    0.70600    1.000
    H40      H        0.96540    0.99640    0.81080    1.000
    H41      H        0.28630    0.03540    0.71460    1.000
    H42      H        0.33950    0.92320    0.70460    1.000
    H43      H        0.76520    0.84010    0.86000    1.000
    H44      H        0.65090    0.02960    0.79380    1.000
    H45      H        0.20190    0.48720    0.24700    1.000
    H46      H        0.92010    0.36330    0.45600    1.000
    H47      H        0.33180    0.92420    0.95860    1.000
    H48      H        0.44440    0.73630    0.02060    1.000
    H49      H        0.32440    0.45790    0.38580    1.000
    H50      H        0.04220    0.33000    0.59800    1.000
    H51      H        0.38840    0.36690    0.72740    1.000
    H52      H        0.31890    0.29030    0.83260    1.000
    H53      H        0.48510    0.20110    0.70600    1.000
    H54      H        0.53460    0.19280    0.81080    1.000
    H55      H        0.21370    0.25000    0.71460    1.000
    H56      H        0.16050    0.37220    0.70460    1.000
    C1       C        0.11850    0.71784    0.05112    1.000
    C2       C        0.98020    0.86690    0.12720    1.000
    C3       C        0.47410    0.68869    0.75282    1.000
    C4       C        0.17800    0.73724    0.11972    1.000
    C5       C        0.11020    0.81148    0.15944    1.000
    C6       C        0.69560    0.89563    0.49234    1.000
    C7       C        0.54810    0.76513    0.66274    1.000
    C8       C        0.66990    0.77329    0.68242    1.000
    C9       C        0.19310    0.64579    0.00302    1.000
    C10      C        0.50190    0.82360    0.55780    1.000
    C11      C        0.91920    0.84628    0.06104    1.000
    C12      C        0.98690    0.77138    0.02324    1.000
    C13      C        0.74380    0.83793    0.59974    1.000
    C14      C        0.57490    0.88894    0.47232    1.000
    C15      C        0.85120    0.06194    0.23832    1.000
    C16      C        0.95840    0.97291    0.22418    1.000
    C17      C        0.73680    0.01527    0.30586    1.000
    C18      C        0.38150    0.23104    0.05112    1.000
    C19      C        0.51980    0.00590    0.12720    1.000
    C20      C        0.02590    0.55849    0.75282    1.000
    C21      C        0.32200    0.14304    0.11972    1.000
    C22      C        0.38980    0.02908    0.15944    1.000
    C23      C        0.80440    0.61203    0.49234    1.000
    C24      C        0.95190    0.57213    0.66274    1.000
    C25      C        0.83010    0.54429    0.68242    1.000
    C26      C        0.30690    0.35119    0.00302    1.000
    C27      C        0.99810    0.61860    0.55780    1.000
    C28      C        0.58080    0.09268    0.06104    1.000
    C29      C        0.51310    0.20538    0.02324    1.000
    C30      C        0.75620    0.56233    0.59974    1.000
    C31      C        0.92510    0.63874    0.47232    1.000
    C32      C        0.64880    0.69974    0.23832    1.000
    C33      C        0.54160    0.80291    0.22418    1.000
    C34      C        0.76320    0.67887    0.30586    1.000
    C35      C        0.88150    0.28216    0.94888    1.000
    C36      C        0.01980    0.13310    0.87280    1.000
    C37      C        0.52590    0.31131    0.24718    1.000
    C38      C        0.82200    0.26276    0.88028    1.000
    C39      C        0.88980    0.18852    0.84056    1.000
    C40      C        0.30440    0.10437    0.50766    1.000
    C41      C        0.45190    0.23487    0.33726    1.000
    C42      C        0.33010    0.22671    0.31758    1.000
    C43      C        0.80690    0.35421    0.99698    1.000
    C44      C        0.49810    0.17640    0.44220    1.000
    C45      C        0.08080    0.15372    0.93896    1.000
    C46      C        0.01310    0.22862    0.97676    1.000
    C47      C        0.25620    0.16207    0.40026    1.000
    C48      C        0.42510    0.11106    0.52768    1.000
    C49      C        0.14880    0.93806    0.76168    1.000
    C50      C        0.04160    0.02709    0.77582    1.000
    C51      C        0.26320    0.98473    0.69414    1.000
    C52      C        0.61850    0.76896    0.94888    1.000
    C53      C        0.48020    0.99410    0.87280    1.000
    C54      C        0.97410    0.44151    0.24718    1.000
    C55      C        0.67800    0.85696    0.88028    1.000
    C56      C        0.61020    0.97092    0.84056    1.000
    C57      C        0.19560    0.38797    0.50766    1.000
    C58      C        0.04810    0.42787    0.33726    1.000
    C59      C        0.16990    0.45571    0.31758    1.000
    C60      C        0.69310    0.64881    0.99698    1.000
    C61      C        0.00190    0.38140    0.44220    1.000
    C62      C        0.41920    0.90732    0.93896    1.000
    C63      C        0.48690    0.79462    0.97676    1.000
    C64      C        0.24380    0.43767    0.40026    1.000
    C65      C        0.07490    0.36126    0.52768    1.000
    C66      C        0.35120    0.30026    0.76168    1.000
    C67      C        0.45840    0.19709    0.77582    1.000
    C68      C        0.23680    0.32113    0.69414    1.000
    O1       O        0.52730    0.62413    0.84354    1.000
    O2       O        0.13010    0.62900    0.94188    1.000
    O3       O        0.31440    0.60827    0.01810    1.000
    O4       O        0.36010    0.69137    0.73206    1.000
    O5       O        0.90450    0.94225    0.15870    1.000
    O6       O        0.77900    0.95452    0.41636    1.000
    O7       O        0.97270    0.53233    0.84354    1.000
    O8       O        0.36990    0.42912    0.94188    1.000
    O9       O        0.18560    0.37363    0.01810    1.000
    O10      O        0.13990    0.57657    0.73206    1.000
    O11      O        0.59550    0.89905    0.15870    1.000
    O12      O        0.72100    0.62912    0.41636    1.000
    O13      O        0.47270    0.37587    0.15646    1.000
    O14      O        0.86990    0.37100    0.05812    1.000
    O15      O        0.68560    0.39173    0.98190    1.000
    O16      O        0.63990    0.30863    0.26794    1.000
    O17      O        0.09550    0.05775    0.84130    1.000
    O18      O        0.22100    0.04548    0.58364    1.000
    O19      O        0.02730    0.46767    0.15646    1.000
    O20      O        0.63010    0.57088    0.05812    1.000
    O21      O        0.81440    0.62637    0.98190    1.000
    O22      O        0.86010    0.42343    0.26794    1.000
    O23      O        0.40450    0.10095    0.84130    1.000
    O24      O        0.27900    0.37088    0.58364    1.000
