# CIF file generated by openbabel 3.1.0, see https://openbabel.org
data_I
_chemical_name_common 'image0'
_cell_length_a 24.969
_cell_length_b 24.969
_cell_length_c 24.969
_cell_angle_alpha 90
_cell_angle_beta 90
_cell_angle_gamma 90
_space_group_name_H-M_alt 'P 1'
_space_group_name_Hall 'P 1'
loop_
    _symmetry_equiv_pos_as_xyz
    x,y,z
loop_
    _atom_site_label
    _atom_site_type_symbol
    _atom_site_fract_x
    _atom_site_fract_y
    _atom_site_fract_z
    _atom_site_occupancy
    N1       N        0.47420    0.08020    0.24340    1.000
    O1       O        0.57700    0.06540    0.34600    1.000
    O2       O        0.51950    0.01040    0.30700    1.000
    C1       C        0.51460    0.09850    0.27730    1.000
    C2       C        0.53850    0.05470    0.31360    1.000
    N2       N        0.97420    0.58020    0.74340    1.000
    O3       O        0.07700    0.56540    0.84600    1.000
    O4       O        0.01950    0.51040    0.80700    1.000
    C3       C        0.01460    0.59850    0.77730    1.000
    C4       C        0.03850    0.55470    0.81360    1.000
    N3       N        0.02580    0.91980    0.74340    1.000
    O5       O        0.92300    0.93460    0.84600    1.000
    O6       O        0.98050    0.98960    0.80700    1.000
    C5       C        0.98540    0.90150    0.77730    1.000
    C6       C        0.96150    0.94530    0.81360    1.000
    N4       N        0.52580    0.41980    0.24340    1.000
    O7       O        0.42300    0.43460    0.34600    1.000
    O8       O        0.48050    0.48960    0.30700    1.000
    C7       C        0.48540    0.40150    0.27730    1.000
    C8       C        0.46150    0.44530    0.31360    1.000
    N5       N        0.52580    0.58020    0.25660    1.000
    O9       O        0.42300    0.56540    0.15400    1.000
    O10      O        0.48050    0.51040    0.19300    1.000
    C9       C        0.48540    0.59850    0.22270    1.000
    C10      C        0.46150    0.55470    0.18640    1.000
    N6       N        0.02580    0.08020    0.75660    1.000
    O11      O        0.92300    0.06540    0.65400    1.000
    O12      O        0.98050    0.01040    0.69300    1.000
    C11      C        0.98540    0.09850    0.72270    1.000
    C12      C        0.96150    0.05470    0.68640    1.000
    N7       N        0.97420    0.41980    0.75660    1.000
    O13      O        0.07700    0.43460    0.65400    1.000
    O14      O        0.01950    0.48960    0.69300    1.000
    C13      C        0.01460    0.40150    0.72270    1.000
    C14      C        0.03850    0.44530    0.68640    1.000
    N8       N        0.47420    0.91980    0.25660    1.000
    O15      O        0.57700    0.93460    0.15400    1.000
    O16      O        0.51950    0.98960    0.19300    1.000
    C15      C        0.51460    0.90150    0.22270    1.000
    C16      C        0.53850    0.94530    0.18640    1.000
    N9       N        0.24340    0.47420    0.08020    1.000
    O17      O        0.34600    0.57700    0.06540    1.000
    O18      O        0.30700    0.51950    0.01040    1.000
    C17      C        0.27730    0.51460    0.09850    1.000
    C18      C        0.31360    0.53850    0.05470    1.000
    N10      N        0.74340    0.97420    0.58020    1.000
    O19      O        0.84600    0.07700    0.56540    1.000
    O20      O        0.80700    0.01950    0.51040    1.000
    C19      C        0.77730    0.01460    0.59850    1.000
    C20      C        0.81360    0.03850    0.55470    1.000
    N11      N        0.74340    0.02580    0.91980    1.000
    O21      O        0.84600    0.92300    0.93460    1.000
    O22      O        0.80700    0.98050    0.98960    1.000
    C21      C        0.77730    0.98540    0.90150    1.000
    C22      C        0.81360    0.96150    0.94530    1.000
    N12      N        0.24340    0.52580    0.41980    1.000
    O23      O        0.34600    0.42300    0.43460    1.000
    O24      O        0.30700    0.48050    0.48960    1.000
    C23      C        0.27730    0.48540    0.40150    1.000
    C24      C        0.31360    0.46150    0.44530    1.000
    N13      N        0.25660    0.52580    0.58020    1.000
    O25      O        0.15400    0.42300    0.56540    1.000
    O26      O        0.19300    0.48050    0.51040    1.000
    C25      C        0.22270    0.48540    0.59850    1.000
    C26      C        0.18640    0.46150    0.55470    1.000
    N14      N        0.75660    0.02580    0.08020    1.000
    O27      O        0.65400    0.92300    0.06540    1.000
    O28      O        0.69300    0.98050    0.01040    1.000
    C27      C        0.72270    0.98540    0.09850    1.000
    C28      C        0.68640    0.96150    0.05470    1.000
    N15      N        0.75660    0.97420    0.41980    1.000
    O29      O        0.65400    0.07700    0.43460    1.000
    O30      O        0.69300    0.01950    0.48960    1.000
    C29      C        0.72270    0.01460    0.40150    1.000
    C30      C        0.68640    0.03850    0.44530    1.000
    N16      N        0.25660    0.47420    0.91980    1.000
    O31      O        0.15400    0.57700    0.93460    1.000
    O32      O        0.19300    0.51950    0.98960    1.000
    C31      C        0.22270    0.51460    0.90150    1.000
    C32      C        0.18640    0.53850    0.94530    1.000
    N17      N        0.08020    0.24340    0.47420    1.000
    O33      O        0.06540    0.34600    0.57700    1.000
    O34      O        0.01040    0.30700    0.51950    1.000
    C33      C        0.09850    0.27730    0.51460    1.000
    C34      C        0.05470    0.31360    0.53850    1.000
    N18      N        0.58020    0.74340    0.97420    1.000
    O35      O        0.56540    0.84600    0.07700    1.000
    O36      O        0.51040    0.80700    0.01950    1.000
    C35      C        0.59850    0.77730    0.01460    1.000
    C36      C        0.55470    0.81360    0.03850    1.000
    N19      N        0.91980    0.74340    0.02580    1.000
    O37      O        0.93460    0.84600    0.92300    1.000
    O38      O        0.98960    0.80700    0.98050    1.000
    C37      C        0.90150    0.77730    0.98540    1.000
    C38      C        0.94530    0.81360    0.96150    1.000
    N20      N        0.41980    0.24340    0.52580    1.000
    O39      O        0.43460    0.34600    0.42300    1.000
    O40      O        0.48960    0.30700    0.48050    1.000
    C39      C        0.40150    0.27730    0.48540    1.000
    C40      C        0.44530    0.31360    0.46150    1.000
    N21      N        0.58020    0.25660    0.52580    1.000
    O41      O        0.56540    0.15400    0.42300    1.000
    O42      O        0.51040    0.19300    0.48050    1.000
    C41      C        0.59850    0.22270    0.48540    1.000
    C42      C        0.55470    0.18640    0.46150    1.000
    N22      N        0.08020    0.75660    0.02580    1.000
    O43      O        0.06540    0.65400    0.92300    1.000
    O44      O        0.01040    0.69300    0.98050    1.000
    C43      C        0.09850    0.72270    0.98540    1.000
    C44      C        0.05470    0.68640    0.96150    1.000
    N23      N        0.41980    0.75660    0.97420    1.000
    O45      O        0.43460    0.65400    0.07700    1.000
    O46      O        0.48960    0.69300    0.01950    1.000
    C45      C        0.40150    0.72270    0.01460    1.000
    C46      C        0.44530    0.68640    0.03850    1.000
    N24      N        0.91980    0.25660    0.47420    1.000
    O47      O        0.93460    0.15400    0.57700    1.000
    O48      O        0.98960    0.19300    0.51950    1.000
    C47      C        0.90150    0.22270    0.51460    1.000
    C48      C        0.94530    0.18640    0.53850    1.000
    N25      N        0.83020    0.72420    0.00660    1.000
    O49      O        0.81540    0.82700    0.90400    1.000
    O50      O        0.76040    0.76950    0.94300    1.000
    C49      C        0.84850    0.76460    0.97270    1.000
    C50      C        0.80470    0.78850    0.93640    1.000
    N26      N        0.33020    0.22420    0.50660    1.000
    O51      O        0.31540    0.32700    0.40400    1.000
    O52      O        0.26040    0.26950    0.44300    1.000
    C51      C        0.34850    0.26460    0.47270    1.000
    C52      C        0.30470    0.28850    0.43640    1.000
    N27      N        0.66980    0.27580    0.50660    1.000
    O53      O        0.68460    0.17300    0.40400    1.000
    O54      O        0.73960    0.23050    0.44300    1.000
    C53      C        0.65150    0.23540    0.47270    1.000
    C54      C        0.69530    0.21150    0.43640    1.000
    N28      N        0.16980    0.77580    0.00660    1.000
    O55      O        0.18460    0.67300    0.90400    1.000
    O56      O        0.23960    0.73050    0.94300    1.000
    C55      C        0.15150    0.73540    0.97270    1.000
    C56      C        0.19530    0.71150    0.93640    1.000
    N29      N        0.33020    0.77580    0.99340    1.000
    O57      O        0.31540    0.67300    0.09600    1.000
    O58      O        0.26040    0.73050    0.05700    1.000
    C57      C        0.34850    0.73540    0.02730    1.000
    C58      C        0.30470    0.71150    0.06360    1.000
    N30      N        0.83020    0.27580    0.49340    1.000
    O59      O        0.81540    0.17300    0.59600    1.000
    O60      O        0.76040    0.23050    0.55700    1.000
    C59      C        0.84850    0.23540    0.52730    1.000
    C60      C        0.80470    0.21150    0.56360    1.000
    N31      N        0.16980    0.22420    0.49340    1.000
    O61      O        0.18460    0.32700    0.59600    1.000
    O62      O        0.23960    0.26950    0.55700    1.000
    C61      C        0.15150    0.26460    0.52730    1.000
    C62      C        0.19530    0.28850    0.56360    1.000
    N32      N        0.66980    0.72420    0.99340    1.000
    O63      O        0.68460    0.82700    0.09600    1.000
    O64      O        0.73960    0.76950    0.05700    1.000
    C63      C        0.65150    0.76460    0.02730    1.000
    C64      C        0.69530    0.78850    0.06360    1.000
    N33      N        0.22420    0.49340    0.16980    1.000
    O65      O        0.32700    0.59600    0.18460    1.000
    O66      O        0.26950    0.55700    0.23960    1.000
    C65      C        0.26460    0.52730    0.15150    1.000
    C66      C        0.28850    0.56360    0.19530    1.000
    N34      N        0.72420    0.99340    0.66980    1.000
    O67      O        0.82700    0.09600    0.68460    1.000
    O68      O        0.76950    0.05700    0.73960    1.000
    C67      C        0.76460    0.02730    0.65150    1.000
    C68      C        0.78850    0.06360    0.69530    1.000
    N35      N        0.77580    0.99340    0.33020    1.000
    O69      O        0.67300    0.09600    0.31540    1.000
    O70      O        0.73050    0.05700    0.26040    1.000
    C69      C        0.73540    0.02730    0.34850    1.000
    C70      C        0.71150    0.06360    0.30470    1.000
    N36      N        0.27580    0.49340    0.83020    1.000
    O71      O        0.17300    0.59600    0.81540    1.000
    O72      O        0.23050    0.55700    0.76040    1.000
    C71      C        0.23540    0.52730    0.84850    1.000
    C72      C        0.21150    0.56360    0.80470    1.000
    N37      N        0.27580    0.50660    0.66980    1.000
    O73      O        0.17300    0.40400    0.68460    1.000
    O74      O        0.23050    0.44300    0.73960    1.000
    C73      C        0.23540    0.47270    0.65150    1.000
    C74      C        0.21150    0.43640    0.69530    1.000
    N38      N        0.77580    0.00660    0.16980    1.000
    O75      O        0.67300    0.90400    0.18460    1.000
    O76      O        0.73050    0.94300    0.23960    1.000
    C75      C        0.73540    0.97270    0.15150    1.000
    C76      C        0.71150    0.93640    0.19530    1.000
    N39      N        0.72420    0.00660    0.83020    1.000
    O77      O        0.82700    0.90400    0.81540    1.000
    O78      O        0.76950    0.94300    0.76040    1.000
    C77      C        0.76460    0.97270    0.84850    1.000
    C78      C        0.78850    0.93640    0.80470    1.000
    N40      N        0.22420    0.50660    0.33020    1.000
    O79      O        0.32700    0.40400    0.31540    1.000
    O80      O        0.26950    0.44300    0.26040    1.000
    C79      C        0.26460    0.47270    0.34850    1.000
    C80      C        0.28850    0.43640    0.30470    1.000
    N41      N        0.99340    0.33020    0.77580    1.000
    O81      O        0.09600    0.31540    0.67300    1.000
    O82      O        0.05700    0.26040    0.73050    1.000
    C81      C        0.02730    0.34850    0.73540    1.000
    C82      C        0.06360    0.30470    0.71150    1.000
    N42      N        0.49340    0.83020    0.27580    1.000
    O83      O        0.59600    0.81540    0.17300    1.000
    O84      O        0.55700    0.76040    0.23050    1.000
    C83      C        0.52730    0.84850    0.23540    1.000
    C84      C        0.56360    0.80470    0.21150    1.000
    N43      N        0.49340    0.16980    0.22420    1.000
    O85      O        0.59600    0.18460    0.32700    1.000
    O86      O        0.55700    0.23960    0.26950    1.000
    C85      C        0.52730    0.15150    0.26460    1.000
    C86      C        0.56360    0.19530    0.28850    1.000
    N44      N        0.99340    0.66980    0.72420    1.000
    O87      O        0.09600    0.68460    0.82700    1.000
    O88      O        0.05700    0.73960    0.76950    1.000
    C87      C        0.02730    0.65150    0.76460    1.000
    C88      C        0.06360    0.69530    0.78850    1.000
    N45      N        0.00660    0.83020    0.72420    1.000
    O89      O        0.90400    0.81540    0.82700    1.000
    O90      O        0.94300    0.76040    0.76950    1.000
    C89      C        0.97270    0.84850    0.76460    1.000
    C90      C        0.93640    0.80470    0.78850    1.000
    N46      N        0.50660    0.33020    0.22420    1.000
    O91      O        0.40400    0.31540    0.32700    1.000
    O92      O        0.44300    0.26040    0.26950    1.000
    C91      C        0.47270    0.34850    0.26460    1.000
    C92      C        0.43640    0.30470    0.28850    1.000
    N47      N        0.50660    0.66980    0.27580    1.000
    O93      O        0.40400    0.68460    0.17300    1.000
    O94      O        0.44300    0.73960    0.23050    1.000
    C93      C        0.47270    0.65150    0.23540    1.000
    C94      C        0.43640    0.69530    0.21150    1.000
    N48      N        0.00660    0.16980    0.77580    1.000
    O95      O        0.90400    0.18460    0.67300    1.000
    O96      O        0.94300    0.23960    0.73050    1.000
    C95      C        0.97270    0.15150    0.73540    1.000
    C96      C        0.93640    0.19530    0.71150    1.000
    In1      In       0.44600    0.00000    0.25000    1.000
    In2      In       0.05400    0.00000    0.75000    1.000
    In3      In       0.55400    0.50000    0.25000    1.000
    In4      In       0.94600    0.50000    0.75000    1.000
    In5      In       0.25000    0.44600    0.00000    1.000
    In6      In       0.75000    0.05400    0.00000    1.000
    In7      In       0.25000    0.55400    0.50000    1.000
    In8      In       0.75000    0.94600    0.50000    1.000
    In9      In       0.00000    0.25000    0.44600    1.000
    In10     In       0.00000    0.75000    0.05400    1.000
    In11     In       0.50000    0.25000    0.55400    1.000
    In12     In       0.50000    0.75000    0.94600    1.000
    In13     In       0.75000    0.69600    0.00000    1.000
    In14     In       0.75000    0.30400    0.50000    1.000
    In15     In       0.25000    0.80400    0.00000    1.000
    In16     In       0.25000    0.19600    0.50000    1.000
    In17     In       0.19600    0.50000    0.25000    1.000
    In18     In       0.80400    0.00000    0.25000    1.000
    In19     In       0.30400    0.50000    0.75000    1.000
    In20     In       0.69600    0.00000    0.75000    1.000
    In21     In       0.00000    0.25000    0.80400    1.000
    In22     In       0.50000    0.25000    0.19600    1.000
    In23     In       0.00000    0.75000    0.69600    1.000
    In24     In       0.50000    0.75000    0.30400    1.000
    C97      C        0.46500    0.12500    0.21500    1.000
    H1       H        0.43860    0.12500    0.18860    1.000
    C98      C        0.96500    0.62500    0.71500    1.000
    H2       H        0.93860    0.62500    0.68860    1.000
    C99      C        0.03500    0.87500    0.71500    1.000
    H3       H        0.06140    0.87500    0.68860    1.000
    C100     C        0.53500    0.37500    0.21500    1.000
    H4       H        0.56140    0.37500    0.18860    1.000
    C101     C        0.53500    0.62500    0.28500    1.000
    H5       H        0.56140    0.62500    0.31140    1.000
    C102     C        0.03500    0.12500    0.78500    1.000
    H6       H        0.06140    0.12500    0.81140    1.000
    C103     C        0.96500    0.37500    0.78500    1.000
    H7       H        0.93860    0.37500    0.81140    1.000
    C104     C        0.46500    0.87500    0.28500    1.000
    H8       H        0.43860    0.87500    0.31140    1.000
    C105     C        0.21500    0.46500    0.12500    1.000
    H9       H        0.18860    0.43860    0.12500    1.000
    C106     C        0.71500    0.96500    0.62500    1.000
    H10      H        0.68860    0.93860    0.62500    1.000
    C107     C        0.71500    0.03500    0.87500    1.000
    H11      H        0.68860    0.06140    0.87500    1.000
    C108     C        0.21500    0.53500    0.37500    1.000
    H12      H        0.18860    0.56140    0.37500    1.000
    C109     C        0.28500    0.53500    0.62500    1.000
    H13      H        0.31140    0.56140    0.62500    1.000
    C110     C        0.78500    0.03500    0.12500    1.000
    H14      H        0.81140    0.06140    0.12500    1.000
    C111     C        0.78500    0.96500    0.37500    1.000
    H15      H        0.81140    0.93860    0.37500    1.000
    C112     C        0.28500    0.46500    0.87500    1.000
    H16      H        0.31140    0.43860    0.87500    1.000
    C113     C        0.12500    0.21500    0.46500    1.000
    H17      H        0.12500    0.18860    0.43860    1.000
    C114     C        0.62500    0.71500    0.96500    1.000
    H18      H        0.62500    0.68860    0.93860    1.000
    C115     C        0.87500    0.71500    0.03500    1.000
    H19      H        0.87500    0.68860    0.06140    1.000
    C116     C        0.37500    0.21500    0.53500    1.000
    H20      H        0.37500    0.18860    0.56140    1.000
    C117     C        0.62500    0.28500    0.53500    1.000
    H21      H        0.62500    0.31140    0.56140    1.000
    C118     C        0.12500    0.78500    0.03500    1.000
    H22      H        0.12500    0.81140    0.06140    1.000
    C119     C        0.37500    0.78500    0.96500    1.000
    H23      H        0.37500    0.81140    0.93860    1.000
    C120     C        0.87500    0.28500    0.46500    1.000
    H24      H        0.87500    0.31140    0.43860    1.000
    In25     In       0.62500    0.12500    0.37500    1.000
    In26     In       0.12500    0.62500    0.87500    1.000
    In27     In       0.87500    0.87500    0.87500    1.000
    In28     In       0.37500    0.37500    0.37500    1.000
    In29     In       0.37500    0.62500    0.12500    1.000
    In30     In       0.87500    0.12500    0.62500    1.000
    In31     In       0.12500    0.37500    0.62500    1.000
    In32     In       0.62500    0.87500    0.12500    1.000
