# CIF file generated by openbabel 3.1.0, see https://openbabel.org
data_I
_chemical_name_common 'PUDSIR_clean'
_cell_length_a 14.8602
_cell_length_b 18.9219
_cell_length_c 29.774
_cell_angle_alpha 98.0891
_cell_angle_beta 90
_cell_angle_gamma 113.121
_space_group_name_H-M_alt 'P 1'
_space_group_name_Hall 'P 1'
loop_
    _symmetry_equiv_pos_as_xyz
    x,y,z
loop_
    _atom_site_label
    _atom_site_type_symbol
    _atom_site_fract_x
    _atom_site_fract_y
    _atom_site_fract_z
    _atom_site_occupancy
    Eu1      Eu       0.38725    0.58070    0.64105    1.000
    Eu2      Eu       0.46637    0.82591    0.65621    1.000
    Eu3      Eu       0.19345    0.58070    0.14105    1.000
    Eu4      Eu       0.35954    0.82591    0.15621    1.000
    H1       H        0.42320    0.81000    0.80970    1.000
    H2       H        0.46880    0.61060    0.78470    1.000
    H3       H        0.46290    0.59960    0.86080    1.000
    H4       H        0.42620    0.59380    0.94270    1.000
    H5       H        0.33940    0.79960    0.00480    1.000
    H6       H        0.37170    0.59980    0.01570    1.000
    H7       H        0.78710    0.85180    0.65540    1.000
    H8       H        0.67050    0.61760    0.64480    1.000
    H9       H        0.94630    0.85440    0.65170    1.000
    H10      H        0.10150    0.83520    0.64950    1.000
    H11      H        0.23170    0.79740    0.65070    1.000
    H12      H        0.04600    0.57020    0.64130    1.000
    H13      H        0.10660    0.33060    0.59840    1.000
    H14      H        0.15350    0.40180    0.73450    1.000
    H15      H        0.01130    0.29800    0.74760    1.000
    H16      H        0.85460    0.18060    0.74780    1.000
    H17      H        0.73820    0.04880    0.59960    1.000
    H18      H        0.71350    0.06640    0.73630    1.000
    H19      H        0.38680    0.81000    0.30970    1.000
    H20      H        0.14180    0.61060    0.28470    1.000
    H21      H        0.13670    0.59960    0.36080    1.000
    H22      H        0.16760    0.59380    0.44270    1.000
    H23      H        0.46020    0.79960    0.50480    1.000
    H24      H        0.22810    0.59980    0.51570    1.000
    H25      H        0.06470    0.85180    0.15540    1.000
    H26      H        0.94710    0.61760    0.14480    1.000
    H27      H        0.90810    0.85440    0.15170    1.000
    H28      H        0.73370    0.83520    0.14950    1.000
    H29      H        0.56570    0.79740    0.15070    1.000
    H30      H        0.52420    0.57020    0.14130    1.000
    H31      H        0.22400    0.33060    0.09840    1.000
    H32      H        0.24830    0.40180    0.23450    1.000
    H33      H        0.28670    0.29800    0.24760    1.000
    H34      H        0.32600    0.18060    0.24780    1.000
    H35      H        0.31060    0.04880    0.09960    1.000
    H36      H        0.35290    0.06640    0.23630    1.000
    C1       C        0.44855    0.71610    0.73910    1.000
    C2       C        0.44573    0.71106    0.78900    1.000
    C3       C        0.42896    0.76612    0.81950    1.000
    C4       C        0.45708    0.64856    0.80550    1.000
    C5       C        0.42078    0.75576    0.86470    1.000
    C6       C        0.45186    0.64092    0.85030    1.000
    C7       C        0.43012    0.69444    0.88060    1.000
    C8       C        0.40955    0.69150    0.92900    1.000
    C9       C        0.38341    0.75182    0.94820    1.000
    C10      C        0.40662    0.63444    0.95480    1.000
    C11      C        0.35399    0.75678    0.99180    1.000
    C12      C        0.37460    0.63860    0.99790    1.000
    C13      C        0.34616    0.69812    0.01652    1.000
    C14      C        0.30156    0.69492    0.06168    1.000
    C15      C        0.61561    0.73802    0.64785    1.000
    C16      C        0.71514    0.73488    0.64890    1.000
    C17      C        0.79620    0.80440    0.65230    1.000
    C18      C        0.72553    0.66586    0.64670    1.000
    C19      C        0.89120    0.80660    0.65130    1.000
    C20      C        0.82308    0.67016    0.64740    1.000
    C21      C        0.90280    0.73820    0.64960    1.000
    C22      C        0.99835    0.72750    0.64880    1.000
    C23      C        0.09030    0.78220    0.64920    1.000
    C24      C        0.98122    0.64984    0.64600    1.000
    C25      C        0.16650    0.75920    0.64920    1.000
    C26      C        0.05790    0.62380    0.64430    1.000
    C27      C        0.15154    0.68108    0.64710    1.000
    C28      C        0.23990    0.66020    0.64821    1.000
    C29      C        0.23543    0.44366    0.65830    1.000
    C30      C        0.14307    0.37514    0.66570    1.000
    C31      C        0.08738    0.32396    0.62840    1.000
    C32      C        0.11456    0.36552    0.70950    1.000
    C33      C        0.00230    0.26260    0.63680    1.000
    C34      C        0.03017    0.30394    0.71740    1.000
    C35      C        0.97347    0.25094    0.68080    1.000
    C36      C        0.88189    0.18058    0.68050    1.000
    C37      C        0.84672    0.14244    0.63766    1.000
    C38      C        0.83172    0.15344    0.71794    1.000
    C39      C        0.76154    0.07468    0.62960    1.000
    C40      C        0.74777    0.08614    0.71090    1.000
    C41      C        0.71219    0.04638    0.66710    1.000
    C42      C        0.62305    0.97250    0.66076    1.000
    C43      C        0.26755    0.71610    0.23910    1.000
    C44      C        0.26533    0.71106    0.28900    1.000
    C45      C        0.33716    0.76612    0.31950    1.000
    C46      C        0.19148    0.64856    0.30550    1.000
    C47      C        0.33498    0.75576    0.36470    1.000
    C48      C        0.18906    0.64092    0.35030    1.000
    C49      C        0.26432    0.69444    0.38060    1.000
    C50      C        0.28195    0.69150    0.42900    1.000
    C51      C        0.36841    0.75182    0.44820    1.000
    C52      C        0.22782    0.63444    0.45480    1.000
    C53      C        0.40279    0.75678    0.49180    1.000
    C54      C        0.26400    0.63860    0.49790    1.000
    C55      C        0.35196    0.69812    0.51652    1.000
    C56      C        0.39336    0.69492    0.56168    1.000
    C57      C        0.12241    0.73802    0.14785    1.000
    C58      C        0.01974    0.73488    0.14890    1.000
    C59      C        0.00820    0.80440    0.15230    1.000
    C60      C        0.94033    0.66586    0.14670    1.000
    C61      C        0.91540    0.80660    0.15130    1.000
    C62      C        0.84708    0.67016    0.14740    1.000
    C63      C        0.83540    0.73820    0.14960    1.000
    C64      C        0.72915    0.72750    0.14880    1.000
    C65      C        0.69190    0.78220    0.14920    1.000
    C66      C        0.66862    0.64984    0.14600    1.000
    C67      C        0.59270    0.75920    0.14920    1.000
    C68      C        0.56590    0.62380    0.14430    1.000
    C69      C        0.52954    0.68108    0.14710    1.000
    C70      C        0.42030    0.66020    0.14821    1.000
    C71      C        0.20823    0.44366    0.15830    1.000
    C72      C        0.23207    0.37514    0.16570    1.000
    C73      C        0.23658    0.32396    0.12840    1.000
    C74      C        0.25096    0.36552    0.20950    1.000
    C75      C        0.26030    0.26260    0.13680    1.000
    C76      C        0.27377    0.30394    0.21740    1.000
    C77      C        0.27747    0.25094    0.18080    1.000
    C78      C        0.29869    0.18058    0.18050    1.000
    C79      C        0.29572    0.14244    0.13766    1.000
    C80      C        0.32172    0.15344    0.21794    1.000
    C81      C        0.31314    0.07468    0.12960    1.000
    C82      C        0.33837    0.08614    0.21090    1.000
    C83      C        0.33419    0.04638    0.16710    1.000
    C84      C        0.34945    0.97250    0.16076    1.000
    S1       S        0.38670    0.81254    0.90804    1.000
    S2       S        0.85687    0.59042    0.64715    1.000
    S3       S        0.92134    0.18906    0.59582    1.000
    S4       S        0.42584    0.81254    0.40804    1.000
    S5       S        0.73355    0.59042    0.14715    1.000
    S6       S        0.26772    0.18906    0.09582    1.000
    O1       O        0.46627    0.78094    0.72768    1.000
    O2       O        0.43217    0.65354    0.71329    1.000
    O3       O        0.46373    0.88866    0.91957    1.000
    O4       O        0.29040    0.80800    0.89816    1.000
    O5       O        0.30213    0.75806    0.08251    1.000
    O6       O        0.26699    0.62998    0.07494    1.000
    O7       O        0.61080    0.80260    0.65932    1.000
    O8       O        0.54430    0.67440    0.63597    1.000
    O9       O        0.83925    0.56050    0.69040    1.000
    O10      O        0.82120    0.53620    0.60650    1.000
    O11      O        0.32360    0.71440    0.65234    1.000
    O12      O        0.22672    0.59064    0.64572    1.000
    O13      O        0.25974    0.45088    0.61784    1.000
    O14      O        0.28366    0.49052    0.69191    1.000
    O15      O        0.96877    0.14154    0.57329    1.000
    O16      O        0.87083    0.21926    0.56743    1.000
    O17      O        0.59407    0.93394    0.62191    1.000
    O18      O        0.57732    0.95084    0.69559    1.000
    O19      O        0.31467    0.78094    0.22768    1.000
    O20      O        0.22137    0.65354    0.21329    1.000
    O21      O        0.42493    0.88866    0.41957    1.000
    O22      O        0.51760    0.80800    0.39816    1.000
    O23      O        0.45593    0.75806    0.58251    1.000
    O24      O        0.36299    0.62998    0.57494    1.000
    O25      O        0.19180    0.80260    0.15932    1.000
    O26      O        0.13010    0.67440    0.13597    1.000
    O27      O        0.72125    0.56050    0.19040    1.000
    O28      O        0.71500    0.53620    0.10650    1.000
    O29      O        0.39080    0.71440    0.15234    1.000
    O30      O        0.36392    0.59064    0.14572    1.000
    O31      O        0.19114    0.45088    0.11784    1.000
    O32      O        0.20686    0.49052    0.19191    1.000
    O33      O        0.17277    0.14154    0.07329    1.000
    O34      O        0.34843    0.21926    0.06743    1.000
    O35      O        0.33987    0.93394    0.12191    1.000
    O36      O        0.37352    0.95084    0.19559    1.000
    Eu5      Eu       0.80655    0.41930    0.85895    1.000
    Eu6      Eu       0.64046    0.17409    0.84379    1.000
    Eu7      Eu       0.61275    0.41930    0.35895    1.000
    Eu8      Eu       0.53363    0.17409    0.34379    1.000
    H37      H        0.61320    0.19000    0.69030    1.000
    H38      H        0.85820    0.38940    0.71530    1.000
    H39      H        0.86330    0.40040    0.63920    1.000
    H40      H        0.83240    0.40620    0.55730    1.000
    H41      H        0.53980    0.20040    0.49520    1.000
    H42      H        0.77190    0.40020    0.48430    1.000
    H43      H        0.93530    0.14820    0.84460    1.000
    H44      H        0.05290    0.38240    0.85520    1.000
    H45      H        0.09190    0.14560    0.84830    1.000
    H46      H        0.26630    0.16480    0.85050    1.000
    H47      H        0.43430    0.20260    0.84930    1.000
    H48      H        0.47580    0.42980    0.85870    1.000
    H49      H        0.77600    0.66940    0.90160    1.000
    H50      H        0.75170    0.59820    0.76550    1.000
    H51      H        0.71330    0.70200    0.75240    1.000
    H52      H        0.67400    0.81940    0.75220    1.000
    H53      H        0.68940    0.95120    0.90040    1.000
    H54      H        0.64710    0.93360    0.76370    1.000
    H55      H        0.57680    0.19000    0.19030    1.000
    H56      H        0.53120    0.38940    0.21530    1.000
    H57      H        0.53710    0.40040    0.13920    1.000
    H58      H        0.57380    0.40620    0.05730    1.000
    H59      H        0.66060    0.20040    0.99520    1.000
    H60      H        0.62830    0.40020    0.98430    1.000
    H61      H        0.21290    0.14820    0.34460    1.000
    H62      H        0.32950    0.38240    0.35520    1.000
    H63      H        0.05370    0.14560    0.34830    1.000
    H64      H        0.89850    0.16480    0.35050    1.000
    H65      H        0.76830    0.20260    0.34930    1.000
    H66      H        0.95400    0.42980    0.35870    1.000
    H67      H        0.89340    0.66940    0.40160    1.000
    H68      H        0.84650    0.59820    0.26550    1.000
    H69      H        0.98870    0.70200    0.25240    1.000
    H70      H        0.14540    0.81940    0.25220    1.000
    H71      H        0.26180    0.95120    0.40040    1.000
    H72      H        0.28650    0.93360    0.26370    1.000
    C85      C        0.73245    0.28390    0.76090    1.000
    C86      C        0.73467    0.28894    0.71100    1.000
    C87      C        0.66284    0.23388    0.68050    1.000
    C88      C        0.80852    0.35144    0.69450    1.000
    C89      C        0.66502    0.24424    0.63530    1.000
    C90      C        0.81094    0.35908    0.64970    1.000
    C91      C        0.73568    0.30556    0.61940    1.000
    C92      C        0.71805    0.30850    0.57100    1.000
    C93      C        0.63159    0.24818    0.55180    1.000
    C94      C        0.77218    0.36556    0.54520    1.000
    C95      C        0.59721    0.24322    0.50820    1.000
    C96      C        0.73600    0.36140    0.50210    1.000
    C97      C        0.64804    0.30188    0.48348    1.000
    C98      C        0.60664    0.30508    0.43832    1.000
    C99      C        0.87759    0.26198    0.85215    1.000
    C100     C        0.98026    0.26512    0.85110    1.000
    C101     C        0.99180    0.19560    0.84770    1.000
    C102     C        0.05967    0.33414    0.85330    1.000
    C103     C        0.08460    0.19340    0.84870    1.000
    C104     C        0.15292    0.32984    0.85260    1.000
    C105     C        0.16460    0.26180    0.85040    1.000
    C106     C        0.27085    0.27250    0.85120    1.000
    C107     C        0.30810    0.21780    0.85080    1.000
    C108     C        0.33138    0.35016    0.85400    1.000
    C109     C        0.40730    0.24080    0.85080    1.000
    C110     C        0.43410    0.37620    0.85570    1.000
    C111     C        0.47046    0.31892    0.85290    1.000
    C112     C        0.57970    0.33980    0.85179    1.000
    C113     C        0.79177    0.55634    0.84170    1.000
    C114     C        0.76793    0.62486    0.83430    1.000
    C115     C        0.76342    0.67604    0.87160    1.000
    C116     C        0.74904    0.63448    0.79050    1.000
    C117     C        0.73970    0.73740    0.86320    1.000
    C118     C        0.72623    0.69606    0.78260    1.000
    C119     C        0.72253    0.74906    0.81920    1.000
    C120     C        0.70131    0.81942    0.81950    1.000
    C121     C        0.70428    0.85756    0.86234    1.000
    C122     C        0.67828    0.84656    0.78206    1.000
    C123     C        0.68686    0.92532    0.87040    1.000
    C124     C        0.66163    0.91386    0.78910    1.000
    C125     C        0.66581    0.95362    0.83290    1.000
    C126     C        0.65055    0.02750    0.83924    1.000
    C127     C        0.55145    0.28390    0.26090    1.000
    C128     C        0.55427    0.28894    0.21100    1.000
    C129     C        0.57104    0.23388    0.18050    1.000
    C130     C        0.54292    0.35144    0.19450    1.000
    C131     C        0.57922    0.24424    0.13530    1.000
    C132     C        0.54814    0.35908    0.14970    1.000
    C133     C        0.56988    0.30556    0.11940    1.000
    C134     C        0.59045    0.30850    0.07100    1.000
    C135     C        0.61659    0.24818    0.05180    1.000
    C136     C        0.59338    0.36556    0.04520    1.000
    C137     C        0.64601    0.24322    0.00820    1.000
    C138     C        0.62540    0.36140    0.00210    1.000
    C139     C        0.65384    0.30188    0.98348    1.000
    C140     C        0.69844    0.30508    0.93832    1.000
    C141     C        0.38439    0.26198    0.35215    1.000
    C142     C        0.28486    0.26512    0.35110    1.000
    C143     C        0.20380    0.19560    0.34770    1.000
    C144     C        0.27447    0.33414    0.35330    1.000
    C145     C        0.10880    0.19340    0.34870    1.000
    C146     C        0.17692    0.32984    0.35260    1.000
    C147     C        0.09720    0.26180    0.35040    1.000
    C148     C        0.00165    0.27250    0.35120    1.000
    C149     C        0.90970    0.21780    0.35080    1.000
    C150     C        0.01878    0.35016    0.35400    1.000
    C151     C        0.83350    0.24080    0.35080    1.000
    C152     C        0.94210    0.37620    0.35570    1.000
    C153     C        0.84846    0.31892    0.35290    1.000
    C154     C        0.76010    0.33980    0.35179    1.000
    C155     C        0.76457    0.55634    0.34170    1.000
    C156     C        0.85693    0.62486    0.33430    1.000
    C157     C        0.91262    0.67604    0.37160    1.000
    C158     C        0.88544    0.63448    0.29050    1.000
    C159     C        0.99770    0.73740    0.36320    1.000
    C160     C        0.96983    0.69606    0.28260    1.000
    C161     C        0.02653    0.74906    0.31920    1.000
    C162     C        0.11811    0.81942    0.31950    1.000
    C163     C        0.15328    0.85756    0.36234    1.000
    C164     C        0.16828    0.84656    0.28206    1.000
    C165     C        0.23846    0.92532    0.37040    1.000
    C166     C        0.25223    0.91386    0.28910    1.000
    C167     C        0.28781    0.95362    0.33290    1.000
    C168     C        0.37695    0.02750    0.33924    1.000
    S7       S        0.57416    0.18746    0.59196    1.000
    S8       S        0.26645    0.40958    0.85285    1.000
    S9       S        0.73228    0.81094    0.90418    1.000
    S10      S        0.61330    0.18746    0.09196    1.000
    S11      S        0.14313    0.40958    0.35285    1.000
    S12      S        0.07866    0.81094    0.40418    1.000
    O37      O        0.68533    0.21906    0.77232    1.000
    O38      O        0.77863    0.34646    0.78671    1.000
    O39      O        0.57507    0.11134    0.58043    1.000
    O40      O        0.48240    0.19200    0.60184    1.000
    O41      O        0.54407    0.24194    0.41749    1.000
    O42      O        0.63701    0.37002    0.42506    1.000
    O43      O        0.80820    0.19740    0.84068    1.000
    O44      O        0.86990    0.32560    0.86403    1.000
    O45      O        0.27875    0.43950    0.80960    1.000
    O46      O        0.28500    0.46380    0.89350    1.000
    O47      O        0.60920    0.28560    0.84766    1.000
    O48      O        0.63608    0.40936    0.85428    1.000
    O49      O        0.80886    0.54912    0.88216    1.000
    O50      O        0.79314    0.50948    0.80809    1.000
    O51      O        0.82723    0.85846    0.92671    1.000
    O52      O        0.65157    0.78074    0.93257    1.000
    O53      O        0.66013    0.06606    0.87809    1.000
    O54      O        0.62648    0.04916    0.80441    1.000
    O55      O        0.53373    0.21906    0.27232    1.000
    O56      O        0.56783    0.34646    0.28671    1.000
    O57      O        0.53627    0.11134    0.08043    1.000
    O58      O        0.70960    0.19200    0.10184    1.000
    O59      O        0.69787    0.24194    0.91749    1.000
    O60      O        0.73301    0.37002    0.92506    1.000
    O61      O        0.38920    0.19740    0.34068    1.000
    O62      O        0.45570    0.32560    0.36403    1.000
    O63      O        0.16075    0.43950    0.30960    1.000
    O64      O        0.17880    0.46380    0.39350    1.000
    O65      O        0.67640    0.28560    0.34766    1.000
    O66      O        0.77328    0.40936    0.35428    1.000
    O67      O        0.74026    0.54912    0.38216    1.000
    O68      O        0.71634    0.50948    0.30809    1.000
    O69      O        0.03123    0.85846    0.42671    1.000
    O70      O        0.12917    0.78074    0.43257    1.000
    O71      O        0.40593    0.06606    0.37809    1.000
    O72      O        0.42268    0.04916    0.30441    1.000
