# CIF file generated by openbabel 3.1.0, see https://openbabel.org
data_I
_chemical_name_common 'image0'
_cell_length_a 18.2898
_cell_length_b 9.3102
_cell_length_c 22.2027
_cell_angle_alpha 90
_cell_angle_beta 112.556
_cell_angle_gamma 90
_space_group_name_H-M_alt 'P 1'
_space_group_name_Hall 'P 1'
loop_
    _symmetry_equiv_pos_as_xyz
    x,y,z
loop_
    _atom_site_label
    _atom_site_type_symbol
    _atom_site_fract_x
    _atom_site_fract_y
    _atom_site_fract_z
    _atom_site_occupancy
    Dy1      Dy       0.23501    0.80190    0.14141    1.000
    S1       S        0.19593    0.18617    0.10797    1.000
    O1       O        0.82070    0.20530    0.97810    1.000
    O2       O        0.18650    0.19360    0.04050    1.000
    C1       C        0.09870    0.19170    0.10820    1.000
    C2       C        0.88970    0.18120    0.98050    1.000
    C3       C        0.95760    0.18990    0.04630    1.000
    O3       O        0.19920    0.14850    0.25850    1.000
    O4       O        0.84090    0.37390    0.10470    1.000
    O5       O        0.90250    0.15170    0.93070    1.000
    O6       O        0.15150    0.36370    0.26070    1.000
    O7       O        0.23270    0.05150    0.13830    1.000
    O8       O        0.82820    0.14360    0.11760    1.000
    C4       C        0.08650    0.22600    0.16560    1.000
    C5       C        0.94440    0.22360    0.10250    1.000
    C6       C        0.03460    0.17560    0.05020    1.000
    H1       H        0.04370    0.15330    0.01140    1.000
    C7       C        0.86530    0.24710    0.10650    1.000
    C8       C        0.00970    0.24240    0.16100    1.000
    H2       H        0.00070    0.26790    0.19940    1.000
    C9       C        0.15060    0.24760    0.23170    1.000
    O9       O        0.23680    0.30810    0.14650    1.000
    K1       K        0.23154    0.47880    0.01396    1.000
    Dy2      Dy       0.73501    0.30190    0.14141    1.000
    S2       S        0.69593    0.68617    0.10797    1.000
    O10      O        0.32070    0.70530    0.97810    1.000
    O11      O        0.68650    0.69360    0.04050    1.000
    C10      C        0.59870    0.69170    0.10820    1.000
    C11      C        0.38970    0.68120    0.98050    1.000
    C12      C        0.45760    0.68990    0.04630    1.000
    O12      O        0.69920    0.64850    0.25850    1.000
    O13      O        0.34090    0.87390    0.10470    1.000
    O14      O        0.40250    0.65170    0.93070    1.000
    O15      O        0.65150    0.86370    0.26070    1.000
    O16      O        0.73270    0.55150    0.13830    1.000
    O17      O        0.32820    0.64360    0.11760    1.000
    C13      C        0.58650    0.72600    0.16560    1.000
    C14      C        0.44440    0.72360    0.10250    1.000
    C15      C        0.53460    0.67560    0.05020    1.000
    H3       H        0.54370    0.65330    0.01140    1.000
    C16      C        0.36530    0.74710    0.10650    1.000
    C17      C        0.50970    0.74240    0.16100    1.000
    H4       H        0.50070    0.76790    0.19940    1.000
    C18      C        0.65060    0.74760    0.23170    1.000
    O18      O        0.73680    0.80810    0.14650    1.000
    K2       K        0.73154    0.97880    0.01396    1.000
    Dy3      Dy       0.76499    0.80190    0.35859    1.000
    S3       S        0.80407    0.18617    0.39203    1.000
    O19      O        0.17930    0.20530    0.52190    1.000
    O20      O        0.81350    0.19360    0.45950    1.000
    C19      C        0.90130    0.19170    0.39180    1.000
    C20      C        0.11030    0.18120    0.51950    1.000
    C21      C        0.04240    0.18990    0.45370    1.000
    O21      O        0.80080    0.14850    0.24150    1.000
    O22      O        0.15910    0.37390    0.39530    1.000
    O23      O        0.09750    0.15170    0.56930    1.000
    O24      O        0.84850    0.36370    0.23930    1.000
    O25      O        0.76730    0.05150    0.36170    1.000
    O26      O        0.17180    0.14360    0.38240    1.000
    C22      C        0.91350    0.22600    0.33440    1.000
    C23      C        0.05560    0.22360    0.39750    1.000
    C24      C        0.96540    0.17560    0.44980    1.000
    H5       H        0.95630    0.15330    0.48860    1.000
    C25      C        0.13470    0.24710    0.39350    1.000
    C26      C        0.99030    0.24240    0.33900    1.000
    H6       H        0.99930    0.26790    0.30060    1.000
    C27      C        0.84940    0.24760    0.26830    1.000
    O27      O        0.76320    0.30810    0.35350    1.000
    K3       K        0.76846    0.47880    0.48604    1.000
    Dy4      Dy       0.26499    0.30190    0.35859    1.000
    S4       S        0.30407    0.68617    0.39203    1.000
    O28      O        0.67930    0.70530    0.52190    1.000
    O29      O        0.31350    0.69360    0.45950    1.000
    C28      C        0.40130    0.69170    0.39180    1.000
    C29      C        0.61030    0.68120    0.51950    1.000
    C30      C        0.54240    0.68990    0.45370    1.000
    O30      O        0.30080    0.64850    0.24150    1.000
    O31      O        0.65910    0.87390    0.39530    1.000
    O32      O        0.59750    0.65170    0.56930    1.000
    O33      O        0.34850    0.86370    0.23930    1.000
    O34      O        0.26730    0.55150    0.36170    1.000
    O35      O        0.67180    0.64360    0.38240    1.000
    C31      C        0.41350    0.72600    0.33440    1.000
    C32      C        0.55560    0.72360    0.39750    1.000
    C33      C        0.46540    0.67560    0.44980    1.000
    H7       H        0.45630    0.65330    0.48860    1.000
    C34      C        0.63470    0.74710    0.39350    1.000
    C35      C        0.49030    0.74240    0.33900    1.000
    H8       H        0.49930    0.76790    0.30060    1.000
    C36      C        0.34940    0.74760    0.26830    1.000
    O36      O        0.26320    0.80810    0.35350    1.000
    K4       K        0.26846    0.97880    0.48604    1.000
    Dy5      Dy       0.76499    0.19810    0.85860    1.000
    S5       S        0.80407    0.81383    0.89203    1.000
    O37      O        0.17930    0.79470    0.02190    1.000
    O38      O        0.81350    0.80640    0.95950    1.000
    C37      C        0.90130    0.80830    0.89180    1.000
    C38      C        0.11030    0.81880    0.01950    1.000
    C39      C        0.04240    0.81010    0.95370    1.000
    O39      O        0.80080    0.85150    0.74150    1.000
    O40      O        0.15910    0.62610    0.89530    1.000
    O41      O        0.09750    0.84830    0.06930    1.000
    O42      O        0.84850    0.63630    0.73930    1.000
    O43      O        0.76730    0.94850    0.86170    1.000
    O44      O        0.17180    0.85640    0.88240    1.000
    C40      C        0.91350    0.77400    0.83440    1.000
    C41      C        0.05560    0.77640    0.89750    1.000
    C42      C        0.96540    0.82440    0.94980    1.000
    H9       H        0.95630    0.84670    0.98860    1.000
    C43      C        0.13470    0.75290    0.89350    1.000
    C44      C        0.99030    0.75760    0.83900    1.000
    H10      H        0.99930    0.73210    0.80060    1.000
    C45      C        0.84940    0.75240    0.76830    1.000
    O45      O        0.76320    0.69190    0.85350    1.000
    K5       K        0.76846    0.52120    0.98604    1.000
    Dy6      Dy       0.26499    0.69810    0.85859    1.000
    S6       S        0.30407    0.31383    0.89203    1.000
    O46      O        0.67930    0.29470    0.02190    1.000
    O47      O        0.31350    0.30640    0.95950    1.000
    C46      C        0.40130    0.30830    0.89180    1.000
    C47      C        0.61030    0.31880    0.01950    1.000
    C48      C        0.54240    0.31010    0.95370    1.000
    O48      O        0.30080    0.35150    0.74150    1.000
    O49      O        0.65910    0.12610    0.89530    1.000
    O50      O        0.59750    0.34830    0.06930    1.000
    O51      O        0.34850    0.13630    0.73930    1.000
    O52      O        0.26730    0.44850    0.86170    1.000
    O53      O        0.67180    0.35640    0.88240    1.000
    C49      C        0.41350    0.27400    0.83440    1.000
    C50      C        0.55560    0.27640    0.89750    1.000
    C51      C        0.46540    0.32440    0.94980    1.000
    H11      H        0.45630    0.34670    0.98860    1.000
    C52      C        0.63470    0.25290    0.89350    1.000
    C53      C        0.49030    0.25760    0.83900    1.000
    H12      H        0.49930    0.23210    0.80060    1.000
    C54      C        0.34940    0.25240    0.76830    1.000
    O54      O        0.26320    0.19190    0.85350    1.000
    K6       K        0.26846    0.02120    0.98604    1.000
    Dy7      Dy       0.23501    0.19810    0.64140    1.000
    S7       S        0.19593    0.81383    0.60797    1.000
    O55      O        0.82070    0.79470    0.47810    1.000
    O56      O        0.18650    0.80640    0.54050    1.000
    C55      C        0.09870    0.80830    0.60820    1.000
    C56      C        0.88970    0.81880    0.48050    1.000
    C57      C        0.95760    0.81010    0.54630    1.000
    O57      O        0.19920    0.85150    0.75850    1.000
    O58      O        0.84090    0.62610    0.60470    1.000
    O59      O        0.90250    0.84830    0.43070    1.000
    O60      O        0.15150    0.63630    0.76070    1.000
    O61      O        0.23270    0.94850    0.63830    1.000
    O62      O        0.82820    0.85640    0.61760    1.000
    C58      C        0.08650    0.77400    0.66560    1.000
    C59      C        0.94440    0.77640    0.60250    1.000
    C60      C        0.03460    0.82440    0.55020    1.000
    H13      H        0.04370    0.84670    0.51140    1.000
    C61      C        0.86530    0.75290    0.60650    1.000
    C62      C        0.00970    0.75760    0.66100    1.000
    H14      H        0.00070    0.73210    0.69940    1.000
    C63      C        0.15060    0.75240    0.73170    1.000
    O63      O        0.23680    0.69190    0.64650    1.000
    K7       K        0.23154    0.52120    0.51396    1.000
    Dy8      Dy       0.73501    0.69810    0.64140    1.000
    S8       S        0.69593    0.31383    0.60797    1.000
    O64      O        0.32070    0.29470    0.47810    1.000
    O65      O        0.68650    0.30640    0.54050    1.000
    C64      C        0.59870    0.30830    0.60820    1.000
    C65      C        0.38970    0.31880    0.48050    1.000
    C66      C        0.45760    0.31010    0.54630    1.000
    O66      O        0.69920    0.35150    0.75850    1.000
    O67      O        0.34090    0.12610    0.60470    1.000
    O68      O        0.40250    0.34830    0.43070    1.000
    O69      O        0.65150    0.13630    0.76070    1.000
    O70      O        0.73270    0.44850    0.63830    1.000
    O71      O        0.32820    0.35640    0.61760    1.000
    C67      C        0.58650    0.27400    0.66560    1.000
    C68      C        0.44440    0.27640    0.60250    1.000
    C69      C        0.53460    0.32440    0.55020    1.000
    H15      H        0.54370    0.34670    0.51140    1.000
    C70      C        0.36530    0.25290    0.60650    1.000
    C71      C        0.50970    0.25760    0.66100    1.000
    H16      H        0.50070    0.23210    0.69940    1.000
    C72      C        0.65060    0.25240    0.73170    1.000
    O72      O        0.73680    0.19190    0.64650    1.000
    K8       K        0.73154    0.02120    0.51396    1.000
