# CIF file generated by openbabel 3.1.0, see https://openbabel.org
data_I
_chemical_name_common 'OHAKEO_clean'
_cell_length_a 8.254
_cell_length_b 18.006
_cell_length_c 18.896
_cell_angle_alpha 90
_cell_angle_beta 90
_cell_angle_gamma 90
_space_group_name_H-M_alt 'P 1'
_space_group_name_Hall 'P 1'
loop_
    _symmetry_equiv_pos_as_xyz
    x,y,z
loop_
    _atom_site_label
    _atom_site_type_symbol
    _atom_site_fract_x
    _atom_site_fract_y
    _atom_site_fract_z
    _atom_site_occupancy
    Cd1      Cd       0.48731    0.09337    0.02727    1.000
    Cd2      Cd       0.51269    0.59337    0.97273    1.000
    Cd3      Cd       0.51269    0.09337    0.52727    1.000
    Cd4      Cd       0.48731    0.59337    0.47273    1.000
    H1       H        0.64890    0.08490    0.86410    1.000
    H2       H        0.50130    0.07190    0.75050    1.000
    H3       H        0.18400    0.10850    0.90540    1.000
    H4       H        0.00150    0.03420    0.82800    1.000
    H5       H        0.78420    0.03700    0.75060    1.000
    H6       H        0.06640    0.13150    0.60220    1.000
    H7       H        0.28410    0.12980    0.68010    1.000
    H8       H        0.41800    0.25250    0.13010    1.000
    H9       H        0.60050    0.36080    0.13490    1.000
    H10      H        0.78630    0.21070    0.00360    1.000
    H11      H        0.74200    0.44440    0.03870    1.000
    H12      H        0.95760    0.52330    0.01260    1.000
    H13      H        0.26610    0.35130    0.02400    1.000
    H14      H        0.05240    0.27130    0.04980    1.000
    H15      H        0.35110    0.58490    0.13590    1.000
    H16      H        0.49870    0.57190    0.24950    1.000
    H17      H        0.81600    0.60850    0.09460    1.000
    H18      H        0.99850    0.53420    0.17200    1.000
    H19      H        0.21580    0.53700    0.24940    1.000
    H20      H        0.93360    0.63150    0.39780    1.000
    H21      H        0.71590    0.62980    0.31990    1.000
    H22      H        0.58200    0.75250    0.86990    1.000
    H23      H        0.39950    0.86080    0.86510    1.000
    H24      H        0.21370    0.71070    0.99640    1.000
    H25      H        0.25800    0.94440    0.96130    1.000
    H26      H        0.04240    0.02330    0.98740    1.000
    H27      H        0.73390    0.85130    0.97600    1.000
    H28      H        0.94760    0.77130    0.95020    1.000
    H29      H        0.35110    0.08490    0.36410    1.000
    H30      H        0.49870    0.07190    0.25050    1.000
    H31      H        0.81600    0.10850    0.40540    1.000
    H32      H        0.99850    0.03420    0.32800    1.000
    H33      H        0.21580    0.03700    0.25060    1.000
    H34      H        0.93360    0.13150    0.10220    1.000
    H35      H        0.71590    0.12980    0.18010    1.000
    H36      H        0.58200    0.25250    0.63010    1.000
    H37      H        0.39950    0.36080    0.63490    1.000
    H38      H        0.21370    0.21070    0.50360    1.000
    H39      H        0.25800    0.44440    0.53870    1.000
    H40      H        0.04240    0.52330    0.51260    1.000
    H41      H        0.73390    0.35130    0.52400    1.000
    H42      H        0.94760    0.27130    0.54980    1.000
    H43      H        0.64890    0.58490    0.63590    1.000
    H44      H        0.50130    0.57190    0.74950    1.000
    H45      H        0.18400    0.60850    0.59460    1.000
    H46      H        0.00150    0.53420    0.67200    1.000
    H47      H        0.78420    0.53700    0.74940    1.000
    H48      H        0.06640    0.63150    0.89780    1.000
    H49      H        0.28410    0.62980    0.81990    1.000
    H50      H        0.41800    0.75250    0.36990    1.000
    H51      H        0.60050    0.86080    0.36510    1.000
    H52      H        0.78630    0.71070    0.49640    1.000
    H53      H        0.74200    0.94440    0.46130    1.000
    H54      H        0.95760    0.02330    0.48740    1.000
    H55      H        0.26610    0.85130    0.47600    1.000
    H56      H        0.05240    0.77130    0.45020    1.000
    C1       C        0.53730    0.08790    0.85810    1.000
    C2       C        0.45610    0.08020    0.79490    1.000
    C3       C        0.28090    0.10060    0.88150    1.000
    C4       C        0.16150    0.08580    0.76250    1.000
    C5       C        0.01320    0.05490    0.78320    1.000
    C6       C        0.88420    0.05550    0.73640    1.000
    C7       C        0.90250    0.08370    0.66810    1.000
    C8       C        0.05320    0.11230    0.64750    1.000
    C9       C        0.18330    0.11220    0.69440    1.000
    C10      C        0.76300    0.08820    0.61720    1.000
    C11      C        0.51460    0.25790    0.10530    1.000
    C12      C        0.61540    0.31810    0.10800    1.000
    C13      C        0.71740    0.23450    0.03520    1.000
    C14      C        0.87800    0.35110    0.04780    1.000
    C15      C        0.84710    0.42590    0.03610    1.000
    C16      C        0.97660    0.47310    0.02030    1.000
    C17      C        0.13400    0.44550    0.01610    1.000
    C18      C        0.16120    0.36990    0.02710    1.000
    C19      C        0.03390    0.32170    0.04280    1.000
    C20      C        0.27250    0.49730    0.00020    1.000
    C21      C        0.46270    0.58790    0.14190    1.000
    C22      C        0.54390    0.58020    0.20510    1.000
    C23      C        0.71910    0.60060    0.11850    1.000
    C24      C        0.83850    0.58580    0.23750    1.000
    C25      C        0.98680    0.55490    0.21680    1.000
    C26      C        0.11580    0.55550    0.26360    1.000
    C27      C        0.09750    0.58370    0.33190    1.000
    C28      C        0.94680    0.61230    0.35250    1.000
    C29      C        0.81670    0.61220    0.30560    1.000
    C30      C        0.23700    0.58820    0.38280    1.000
    C31      C        0.48540    0.75790    0.89470    1.000
    C32      C        0.38460    0.81810    0.89200    1.000
    C33      C        0.28260    0.73450    0.96480    1.000
    C34      C        0.12200    0.85110    0.95220    1.000
    C35      C        0.15290    0.92590    0.96390    1.000
    C36      C        0.02340    0.97310    0.97970    1.000
    C37      C        0.86600    0.94550    0.98390    1.000
    C38      C        0.83880    0.86990    0.97290    1.000
    C39      C        0.96610    0.82170    0.95720    1.000
    C40      C        0.72750    0.99730    0.99980    1.000
    C41      C        0.46270    0.08790    0.35810    1.000
    C42      C        0.54390    0.08020    0.29490    1.000
    C43      C        0.71910    0.10060    0.38150    1.000
    C44      C        0.83850    0.08580    0.26250    1.000
    C45      C        0.98680    0.05490    0.28320    1.000
    C46      C        0.11580    0.05550    0.23640    1.000
    C47      C        0.09750    0.08370    0.16810    1.000
    C48      C        0.94680    0.11230    0.14750    1.000
    C49      C        0.81670    0.11220    0.19440    1.000
    C50      C        0.23700    0.08820    0.11720    1.000
    C51      C        0.48540    0.25790    0.60530    1.000
    C52      C        0.38460    0.31810    0.60800    1.000
    C53      C        0.28260    0.23450    0.53520    1.000
    C54      C        0.12200    0.35110    0.54780    1.000
    C55      C        0.15290    0.42590    0.53610    1.000
    C56      C        0.02340    0.47310    0.52030    1.000
    C57      C        0.86600    0.44550    0.51610    1.000
    C58      C        0.83880    0.36990    0.52710    1.000
    C59      C        0.96610    0.32170    0.54280    1.000
    C60      C        0.72750    0.49730    0.50020    1.000
    C61      C        0.53730    0.58790    0.64190    1.000
    C62      C        0.45610    0.58020    0.70510    1.000
    C63      C        0.28090    0.60060    0.61850    1.000
    C64      C        0.16150    0.58580    0.73750    1.000
    C65      C        0.01320    0.55490    0.71680    1.000
    C66      C        0.88420    0.55550    0.76360    1.000
    C67      C        0.90250    0.58370    0.83190    1.000
    C68      C        0.05320    0.61230    0.85250    1.000
    C69      C        0.18330    0.61220    0.80560    1.000
    C70      C        0.76300    0.58820    0.88280    1.000
    C71      C        0.51460    0.75790    0.39470    1.000
    C72      C        0.61540    0.81810    0.39200    1.000
    C73      C        0.71740    0.73450    0.46480    1.000
    C74      C        0.87800    0.85110    0.45220    1.000
    C75      C        0.84710    0.92590    0.46390    1.000
    C76      C        0.97660    0.97310    0.47970    1.000
    C77      C        0.13400    0.94550    0.48390    1.000
    C78      C        0.16120    0.86990    0.47290    1.000
    C79      C        0.03390    0.82170    0.45720    1.000
    C80      C        0.27250    0.99730    0.49980    1.000
    N1       N        0.42490    0.10100    0.91110    1.000
    N2       N        0.29320    0.08720    0.81110    1.000
    N3       N        0.58160    0.20600    0.05880    1.000
    N4       N        0.74510    0.30320    0.06260    1.000
    N5       N        0.57510    0.60100    0.08890    1.000
    N6       N        0.70680    0.58720    0.18890    1.000
    N7       N        0.41840    0.70600    0.94120    1.000
    N8       N        0.25490    0.80320    0.93740    1.000
    N9       N        0.57510    0.10100    0.41110    1.000
    N10      N        0.70680    0.08720    0.31110    1.000
    N11      N        0.41840    0.20600    0.55880    1.000
    N12      N        0.25490    0.30320    0.56260    1.000
    N13      N        0.42490    0.60100    0.58890    1.000
    N14      N        0.29320    0.58720    0.68890    1.000
    N15      N        0.58160    0.70600    0.44120    1.000
    N16      N        0.74510    0.80320    0.43740    1.000
    O1       O        0.62680    0.06120    0.63610    1.000
    O2       O        0.78520    0.11770    0.55740    1.000
    O3       O        0.24170    0.56610    0.99840    1.000
    O4       O        0.41320    0.47200    0.98900    1.000
    O5       O        0.37320    0.56120    0.36390    1.000
    O6       O        0.21480    0.61770    0.44260    1.000
    O7       O        0.75830    0.06610    0.00160    1.000
    O8       O        0.58680    0.97200    0.01100    1.000
    O9       O        0.37320    0.06120    0.13610    1.000
    O10      O        0.21480    0.11770    0.05740    1.000
    O11      O        0.75830    0.56610    0.49840    1.000
    O12      O        0.58680    0.47200    0.48900    1.000
    O13      O        0.62680    0.56120    0.86390    1.000
    O14      O        0.78520    0.61770    0.94260    1.000
    O15      O        0.24170    0.06610    0.50160    1.000
    O16      O        0.41320    0.97200    0.51100    1.000
