# CIF file generated by openbabel 3.1.0, see https://openbabel.org
data_I
_chemical_name_common 'OKITIM01_charged'
_cell_length_a 15.8539
_cell_length_b 15.8539
_cell_length_c 21.66
_cell_angle_alpha 90
_cell_angle_beta 90
_cell_angle_gamma 90
_space_group_name_H-M_alt 'P 1'
_space_group_name_Hall 'P 1'
loop_
    _symmetry_equiv_pos_as_xyz
    x,y,z
loop_
    _atom_site_label
    _atom_site_type_symbol
    _atom_site_fract_x
    _atom_site_fract_y
    _atom_site_fract_z
    _atom_site_occupancy
    Cd1      Cd       0.94188    0.05812    0.75000    1.000
    Cd2      Cd       0.05812    0.94188    0.25000    1.000
    Cd3      Cd       0.44188    0.44188    0.50000    1.000
    Cd4      Cd       0.55812    0.55812    0.00000    1.000
    H1       H        0.46210    0.38930    0.65080    1.000
    H2       H        0.41510    0.28570    0.71620    1.000
    H3       H        0.21330    0.25860    0.60440    1.000
    H4       H        0.27320    0.35790    0.53920    1.000
    H5       H        0.34890    0.20190    0.77980    1.000
    H6       H        0.29430    0.09270    0.83730    1.000
    H7       H        0.19710    0.99720    0.79220    1.000
    H8       H        0.20200    0.13510    0.63560    1.000
    H9       H        0.95440    0.88110    0.53830    1.000
    H10      H        0.93360    0.76870    0.47030    1.000
    H11      H        0.03670    0.66490    0.45920    1.000
    H12      H        0.17420    0.77630    0.59490    1.000
    H13      H        0.23140    0.65240    0.60770    1.000
    H14      H        0.33820    0.55510    0.59340    1.000
    H15      H        0.26470    0.51010    0.42480    1.000
    H16      H        0.15530    0.60520    0.43360    1.000
    H17      H        0.25020    0.97020    0.59360    1.000
    H18      H        0.26440    0.91710    0.64920    1.000
    H19      H        0.53790    0.61070    0.15080    1.000
    H20      H        0.58490    0.71430    0.21620    1.000
    H21      H        0.78670    0.74140    0.10440    1.000
    H22      H        0.72680    0.64210    0.03920    1.000
    H23      H        0.65110    0.79810    0.27980    1.000
    H24      H        0.70570    0.90730    0.33730    1.000
    H25      H        0.80290    0.00280    0.29220    1.000
    H26      H        0.79800    0.86490    0.13560    1.000
    H27      H        0.04560    0.11890    0.03830    1.000
    H28      H        0.06640    0.23130    0.97030    1.000
    H29      H        0.96330    0.33510    0.95920    1.000
    H30      H        0.82580    0.22370    0.09490    1.000
    H31      H        0.76860    0.34760    0.10770    1.000
    H32      H        0.66180    0.44490    0.09340    1.000
    H33      H        0.73530    0.48990    0.92480    1.000
    H34      H        0.84470    0.39480    0.93360    1.000
    H35      H        0.74980    0.02980    0.09360    1.000
    H36      H        0.73560    0.08290    0.14920    1.000
    H37      H        0.11070    0.96210    0.40080    1.000
    H38      H        0.21430    0.91510    0.46620    1.000
    H39      H        0.24140    0.71330    0.35440    1.000
    H40      H        0.14210    0.77320    0.28920    1.000
    H41      H        0.29810    0.84890    0.52980    1.000
    H42      H        0.40730    0.79430    0.58730    1.000
    H43      H        0.50280    0.69710    0.54220    1.000
    H44      H        0.36490    0.70200    0.38560    1.000
    H45      H        0.61890    0.45440    0.28830    1.000
    H46      H        0.73130    0.43360    0.22030    1.000
    H47      H        0.83510    0.53670    0.20920    1.000
    H48      H        0.72370    0.67420    0.34490    1.000
    H49      H        0.84760    0.73140    0.35770    1.000
    H50      H        0.94490    0.83820    0.34340    1.000
    H51      H        0.98990    0.76470    0.17480    1.000
    H52      H        0.89480    0.65530    0.18360    1.000
    H53      H        0.52980    0.75020    0.34360    1.000
    H54      H        0.58290    0.76440    0.39920    1.000
    H55      H        0.88930    0.03790    0.90080    1.000
    H56      H        0.78570    0.08490    0.96620    1.000
    H57      H        0.75860    0.28670    0.85440    1.000
    H58      H        0.85790    0.22680    0.78920    1.000
    H59      H        0.70190    0.15110    0.02980    1.000
    H60      H        0.59270    0.20570    0.08730    1.000
    H61      H        0.49720    0.30290    0.04220    1.000
    H62      H        0.63510    0.29800    0.88560    1.000
    H63      H        0.38110    0.54560    0.78830    1.000
    H64      H        0.26870    0.56640    0.72030    1.000
    H65      H        0.16490    0.46330    0.70920    1.000
    H66      H        0.27630    0.32580    0.84490    1.000
    H67      H        0.15240    0.26860    0.85770    1.000
    H68      H        0.05510    0.16180    0.84340    1.000
    H69      H        0.01010    0.23530    0.67480    1.000
    H70      H        0.10520    0.34470    0.68360    1.000
    H71      H        0.47020    0.24980    0.84360    1.000
    H72      H        0.41710    0.23560    0.89920    1.000
    H73      H        0.03790    0.88930    0.09920    1.000
    H74      H        0.08490    0.78570    0.03380    1.000
    H75      H        0.28670    0.75860    0.14560    1.000
    H76      H        0.22680    0.85790    0.21080    1.000
    H77      H        0.15110    0.70190    0.97020    1.000
    H78      H        0.20570    0.59270    0.91270    1.000
    H79      H        0.30290    0.49720    0.95780    1.000
    H80      H        0.29800    0.63510    0.11440    1.000
    H81      H        0.54560    0.38110    0.21170    1.000
    H82      H        0.56640    0.26870    0.27970    1.000
    H83      H        0.46330    0.16490    0.29080    1.000
    H84      H        0.32580    0.27630    0.15510    1.000
    H85      H        0.26860    0.15240    0.14230    1.000
    H86      H        0.16180    0.05510    0.15660    1.000
    H87      H        0.23530    0.01010    0.32520    1.000
    H88      H        0.34470    0.10520    0.31640    1.000
    H89      H        0.24980    0.47020    0.15640    1.000
    H90      H        0.23560    0.41710    0.10080    1.000
    H91      H        0.96210    0.11070    0.59920    1.000
    H92      H        0.91510    0.21430    0.53380    1.000
    H93      H        0.71330    0.24140    0.64560    1.000
    H94      H        0.77320    0.14210    0.71080    1.000
    H95      H        0.84890    0.29810    0.47020    1.000
    H96      H        0.79430    0.40730    0.41270    1.000
    H97      H        0.69710    0.50280    0.45780    1.000
    H98      H        0.70200    0.36490    0.61440    1.000
    H99      H        0.45440    0.61890    0.71170    1.000
    H100     H        0.43360    0.73130    0.77970    1.000
    H101     H        0.53670    0.83510    0.79080    1.000
    H102     H        0.67420    0.72370    0.65510    1.000
    H103     H        0.73140    0.84760    0.64230    1.000
    H104     H        0.83820    0.94490    0.65660    1.000
    H105     H        0.76470    0.98990    0.82520    1.000
    H106     H        0.65530    0.89480    0.81640    1.000
    H107     H        0.75020    0.52980    0.65640    1.000
    H108     H        0.76440    0.58290    0.60080    1.000
    H109     H        0.38930    0.46210    0.34920    1.000
    H110     H        0.28570    0.41510    0.28380    1.000
    H111     H        0.25860    0.21330    0.39560    1.000
    H112     H        0.35790    0.27320    0.46080    1.000
    H113     H        0.20190    0.34890    0.22020    1.000
    H114     H        0.09270    0.29430    0.16270    1.000
    H115     H        0.99720    0.19710    0.20780    1.000
    H116     H        0.13510    0.20200    0.36440    1.000
    H117     H        0.88110    0.95440    0.46170    1.000
    H118     H        0.76870    0.93360    0.52970    1.000
    H119     H        0.66490    0.03670    0.54080    1.000
    H120     H        0.77630    0.17420    0.40510    1.000
    H121     H        0.65240    0.23140    0.39230    1.000
    H122     H        0.55510    0.33820    0.40660    1.000
    H123     H        0.51010    0.26470    0.57520    1.000
    H124     H        0.60520    0.15530    0.56640    1.000
    H125     H        0.97020    0.25020    0.40640    1.000
    H126     H        0.91710    0.26440    0.35080    1.000
    H127     H        0.61070    0.53790    0.84920    1.000
    H128     H        0.71430    0.58490    0.78380    1.000
    H129     H        0.74140    0.78670    0.89560    1.000
    H130     H        0.64210    0.72680    0.96080    1.000
    H131     H        0.79810    0.65110    0.72020    1.000
    H132     H        0.90730    0.70570    0.66270    1.000
    H133     H        0.00280    0.80290    0.70780    1.000
    H134     H        0.86490    0.79800    0.86440    1.000
    H135     H        0.11890    0.04560    0.96170    1.000
    H136     H        0.23130    0.06640    0.02970    1.000
    H137     H        0.33510    0.96330    0.04080    1.000
    H138     H        0.22370    0.82580    0.90510    1.000
    H139     H        0.34760    0.76860    0.89230    1.000
    H140     H        0.44490    0.66180    0.90660    1.000
    H141     H        0.48990    0.73530    0.07520    1.000
    H142     H        0.39480    0.84470    0.06640    1.000
    H143     H        0.02980    0.74980    0.90640    1.000
    H144     H        0.08290    0.73560    0.85080    1.000
    C1       C        0.41250    0.35930    0.63980    1.000
    C2       C        0.38460    0.29790    0.67950    1.000
    C3       C        0.31080    0.25320    0.66520    1.000
    C4       C        0.26730    0.28120    0.61370    1.000
    C5       C        0.30260    0.34230    0.57560    1.000
    C6       C        0.27970    0.18180    0.70180    1.000
    C7       C        0.30740    0.16610    0.76210    1.000
    C8       C        0.27620    0.10060    0.79590    1.000
    C9       C        0.21720    0.04450    0.76960    1.000
    C10      C        0.18930    0.06010    0.70970    1.000
    C11      C        0.22080    0.12650    0.67680    1.000
    C12      C        0.12700    0.00340    0.67960    1.000
    C13      C        0.07500    0.90780    0.61720    1.000
    C14      C        0.06750    0.83850    0.57270    1.000
    C15      C        0.99500    0.83720    0.53540    1.000
    C16      C        0.98330    0.77110    0.49470    1.000
    C17      C        0.04400    0.70810    0.48910    1.000
    C18      C        0.11540    0.70770    0.52680    1.000
    C19      C        0.12600    0.77500    0.56890    1.000
    C20      C        0.18110    0.64210    0.52130    1.000
    C21      C        0.23700    0.62460    0.56900    1.000
    C22      C        0.30100    0.56620    0.56000    1.000
    C23      C        0.25860    0.54000    0.46250    1.000
    C24      C        0.19260    0.59710    0.46740    1.000
    C25      C        0.58750    0.64070    0.13980    1.000
    C26      C        0.61540    0.70210    0.17950    1.000
    C27      C        0.68920    0.74680    0.16520    1.000
    C28      C        0.73270    0.71880    0.11370    1.000
    C29      C        0.69740    0.65770    0.07560    1.000
    C30      C        0.72030    0.81820    0.20180    1.000
    C31      C        0.69260    0.83390    0.26210    1.000
    C32      C        0.72380    0.89940    0.29590    1.000
    C33      C        0.78280    0.95550    0.26960    1.000
    C34      C        0.81070    0.93990    0.20970    1.000
    C35      C        0.77920    0.87350    0.17680    1.000
    C36      C        0.87300    0.99660    0.17960    1.000
    C37      C        0.92500    0.09220    0.11720    1.000
    C38      C        0.93250    0.16150    0.07270    1.000
    C39      C        0.00500    0.16280    0.03540    1.000
    C40      C        0.01670    0.22890    0.99470    1.000
    C41      C        0.95600    0.29190    0.98910    1.000
    C42      C        0.88460    0.29230    0.02680    1.000
    C43      C        0.87400    0.22500    0.06890    1.000
    C44      C        0.81890    0.35790    0.02130    1.000
    C45      C        0.76300    0.37540    0.06900    1.000
    C46      C        0.69900    0.43380    0.06000    1.000
    C47      C        0.74140    0.46000    0.96250    1.000
    C48      C        0.80740    0.40290    0.96740    1.000
    C49      C        0.14070    0.91250    0.38980    1.000
    C50      C        0.20210    0.88460    0.42950    1.000
    C51      C        0.24680    0.81080    0.41520    1.000
    C52      C        0.21880    0.76730    0.36370    1.000
    C53      C        0.15770    0.80260    0.32560    1.000
    C54      C        0.31820    0.77970    0.45180    1.000
    C55      C        0.33390    0.80740    0.51210    1.000
    C56      C        0.39940    0.77620    0.54590    1.000
    C57      C        0.45550    0.71720    0.51960    1.000
    C58      C        0.43990    0.68930    0.45970    1.000
    C59      C        0.37350    0.72080    0.42680    1.000
    C60      C        0.49660    0.62700    0.42960    1.000
    C61      C        0.59220    0.57500    0.36720    1.000
    C62      C        0.66150    0.56750    0.32270    1.000
    C63      C        0.66280    0.49500    0.28540    1.000
    C64      C        0.72890    0.48330    0.24470    1.000
    C65      C        0.79190    0.54400    0.23910    1.000
    C66      C        0.79230    0.61540    0.27680    1.000
    C67      C        0.72500    0.62600    0.31890    1.000
    C68      C        0.85790    0.68110    0.27130    1.000
    C69      C        0.87540    0.73700    0.31900    1.000
    C70      C        0.93380    0.80100    0.31000    1.000
    C71      C        0.96000    0.75860    0.21250    1.000
    C72      C        0.90290    0.69260    0.21740    1.000
    C73      C        0.85930    0.08750    0.88980    1.000
    C74      C        0.79790    0.11540    0.92950    1.000
    C75      C        0.75320    0.18920    0.91520    1.000
    C76      C        0.78120    0.23270    0.86370    1.000
    C77      C        0.84230    0.19740    0.82560    1.000
    C78      C        0.68180    0.22030    0.95180    1.000
    C79      C        0.66610    0.19260    0.01210    1.000
    C80      C        0.60060    0.22380    0.04590    1.000
    C81      C        0.54450    0.28280    0.01960    1.000
    C82      C        0.56010    0.31070    0.95970    1.000
    C83      C        0.62650    0.27920    0.92680    1.000
    C84      C        0.50340    0.37300    0.92960    1.000
    C85      C        0.40780    0.42500    0.86720    1.000
    C86      C        0.33850    0.43250    0.82270    1.000
    C87      C        0.33720    0.50500    0.78540    1.000
    C88      C        0.27110    0.51670    0.74470    1.000
    C89      C        0.20810    0.45600    0.73910    1.000
    C90      C        0.20770    0.38460    0.77680    1.000
    C91      C        0.27500    0.37400    0.81890    1.000
    C92      C        0.14210    0.31890    0.77130    1.000
    C93      C        0.12460    0.26300    0.81900    1.000
    C94      C        0.06620    0.19900    0.81000    1.000
    C95      C        0.04000    0.24140    0.71250    1.000
    C96      C        0.09710    0.30740    0.71740    1.000
    C97      C        0.08750    0.85930    0.11020    1.000
    C98      C        0.11540    0.79790    0.07050    1.000
    C99      C        0.18920    0.75320    0.08480    1.000
    C100     C        0.23270    0.78120    0.13630    1.000
    C101     C        0.19740    0.84230    0.17440    1.000
    C102     C        0.22030    0.68180    0.04820    1.000
    C103     C        0.19260    0.66610    0.98790    1.000
    C104     C        0.22380    0.60060    0.95410    1.000
    C105     C        0.28280    0.54450    0.98040    1.000
    C106     C        0.31070    0.56010    0.04030    1.000
    C107     C        0.27920    0.62650    0.07320    1.000
    C108     C        0.37300    0.50340    0.07040    1.000
    C109     C        0.42500    0.40780    0.13280    1.000
    C110     C        0.43250    0.33850    0.17730    1.000
    C111     C        0.50500    0.33720    0.21460    1.000
    C112     C        0.51670    0.27110    0.25530    1.000
    C113     C        0.45600    0.20810    0.26090    1.000
    C114     C        0.38460    0.20770    0.22320    1.000
    C115     C        0.37400    0.27500    0.18110    1.000
    C116     C        0.31890    0.14210    0.22870    1.000
    C117     C        0.26300    0.12460    0.18100    1.000
    C118     C        0.19900    0.06620    0.19000    1.000
    C119     C        0.24140    0.04000    0.28750    1.000
    C120     C        0.30740    0.09710    0.28260    1.000
    C121     C        0.91250    0.14070    0.61020    1.000
    C122     C        0.88460    0.20210    0.57050    1.000
    C123     C        0.81080    0.24680    0.58480    1.000
    C124     C        0.76730    0.21880    0.63630    1.000
    C125     C        0.80260    0.15770    0.67440    1.000
    C126     C        0.77970    0.31820    0.54820    1.000
    C127     C        0.80740    0.33390    0.48790    1.000
    C128     C        0.77620    0.39940    0.45410    1.000
    C129     C        0.71720    0.45550    0.48040    1.000
    C130     C        0.68930    0.43990    0.54030    1.000
    C131     C        0.72080    0.37350    0.57320    1.000
    C132     C        0.62700    0.49660    0.57040    1.000
    C133     C        0.57500    0.59220    0.63280    1.000
    C134     C        0.56750    0.66150    0.67730    1.000
    C135     C        0.49500    0.66280    0.71460    1.000
    C136     C        0.48330    0.72890    0.75530    1.000
    C137     C        0.54400    0.79190    0.76090    1.000
    C138     C        0.61540    0.79230    0.72320    1.000
    C139     C        0.62600    0.72500    0.68110    1.000
    C140     C        0.68110    0.85790    0.72870    1.000
    C141     C        0.73700    0.87540    0.68100    1.000
    C142     C        0.80100    0.93380    0.69000    1.000
    C143     C        0.75860    0.96000    0.78750    1.000
    C144     C        0.69260    0.90290    0.78260    1.000
    C145     C        0.35930    0.41250    0.36020    1.000
    C146     C        0.29790    0.38460    0.32050    1.000
    C147     C        0.25320    0.31080    0.33480    1.000
    C148     C        0.28120    0.26730    0.38630    1.000
    C149     C        0.34230    0.30260    0.42440    1.000
    C150     C        0.18180    0.27970    0.29820    1.000
    C151     C        0.16610    0.30740    0.23790    1.000
    C152     C        0.10060    0.27620    0.20410    1.000
    C153     C        0.04450    0.21720    0.23040    1.000
    C154     C        0.06010    0.18930    0.29030    1.000
    C155     C        0.12650    0.22080    0.32320    1.000
    C156     C        0.00340    0.12700    0.32040    1.000
    C157     C        0.90780    0.07500    0.38280    1.000
    C158     C        0.83850    0.06750    0.42730    1.000
    C159     C        0.83720    0.99500    0.46460    1.000
    C160     C        0.77110    0.98330    0.50530    1.000
    C161     C        0.70810    0.04400    0.51090    1.000
    C162     C        0.70770    0.11540    0.47320    1.000
    C163     C        0.77500    0.12600    0.43110    1.000
    C164     C        0.64210    0.18110    0.47870    1.000
    C165     C        0.62460    0.23700    0.43100    1.000
    C166     C        0.56620    0.30100    0.44000    1.000
    C167     C        0.54000    0.25860    0.53750    1.000
    C168     C        0.59710    0.19260    0.53260    1.000
    C169     C        0.64070    0.58750    0.86020    1.000
    C170     C        0.70210    0.61540    0.82050    1.000
    C171     C        0.74680    0.68920    0.83480    1.000
    C172     C        0.71880    0.73270    0.88630    1.000
    C173     C        0.65770    0.69740    0.92440    1.000
    C174     C        0.81820    0.72030    0.79820    1.000
    C175     C        0.83390    0.69260    0.73790    1.000
    C176     C        0.89940    0.72380    0.70410    1.000
    C177     C        0.95550    0.78280    0.73040    1.000
    C178     C        0.93990    0.81070    0.79030    1.000
    C179     C        0.87350    0.77920    0.82320    1.000
    C180     C        0.99660    0.87300    0.82040    1.000
    C181     C        0.09220    0.92500    0.88280    1.000
    C182     C        0.16150    0.93250    0.92730    1.000
    C183     C        0.16280    0.00500    0.96460    1.000
    C184     C        0.22890    0.01670    0.00530    1.000
    C185     C        0.29190    0.95600    0.01090    1.000
    C186     C        0.29230    0.88460    0.97320    1.000
    C187     C        0.22500    0.87400    0.93110    1.000
    C188     C        0.35790    0.81890    0.97870    1.000
    C189     C        0.37540    0.76300    0.93100    1.000
    C190     C        0.43380    0.69900    0.94000    1.000
    C191     C        0.46000    0.74140    0.03750    1.000
    C192     C        0.40290    0.80740    0.03260    1.000
    N1       N        0.37510    0.37970    0.58780    1.000
    N2       N        0.04470    0.00570    0.68450    1.000
    N3       N        0.01150    0.94510    0.64450    1.000
    N4       N        0.14910    0.94290    0.63800    1.000
    N5       N        0.23010    0.92610    0.61610    1.000
    N6       N        0.31340    0.52450    0.50680    1.000
    N7       N        0.62490    0.62030    0.08780    1.000
    N8       N        0.95530    0.99430    0.18450    1.000
    N9       N        0.98850    0.05490    0.14450    1.000
    N10      N        0.85090    0.05710    0.13800    1.000
    N11      N        0.76990    0.07390    0.11610    1.000
    N12      N        0.68660    0.47550    0.00680    1.000
    N13      N        0.12030    0.87510    0.33780    1.000
    N14      N        0.49430    0.54470    0.43450    1.000
    N15      N        0.55490    0.51150    0.39450    1.000
    N16      N        0.55710    0.64910    0.38800    1.000
    N17      N        0.57390    0.73010    0.36610    1.000
    N18      N        0.97550    0.81340    0.25680    1.000
    N19      N        0.87970    0.12490    0.83780    1.000
    N20      N        0.50570    0.45530    0.93450    1.000
    N21      N        0.44510    0.48850    0.89450    1.000
    N22      N        0.44290    0.35090    0.88800    1.000
    N23      N        0.42610    0.26990    0.86610    1.000
    N24      N        0.02450    0.18660    0.75680    1.000
    N25      N        0.12490    0.87970    0.16220    1.000
    N26      N        0.45530    0.50570    0.06550    1.000
    N27      N        0.48850    0.44510    0.10550    1.000
    N28      N        0.35090    0.44290    0.11200    1.000
    N29      N        0.26990    0.42610    0.13390    1.000
    N30      N        0.18660    0.02450    0.24320    1.000
    N31      N        0.87510    0.12030    0.66220    1.000
    N32      N        0.54470    0.49430    0.56550    1.000
    N33      N        0.51150    0.55490    0.60550    1.000
    N34      N        0.64910    0.55710    0.61200    1.000
    N35      N        0.73010    0.57390    0.63390    1.000
    N36      N        0.81340    0.97550    0.74320    1.000
    N37      N        0.37970    0.37510    0.41220    1.000
    N38      N        0.00570    0.04470    0.31550    1.000
    N39      N        0.94510    0.01150    0.35550    1.000
    N40      N        0.94290    0.14910    0.36200    1.000
    N41      N        0.92610    0.23010    0.38390    1.000
    N42      N        0.52450    0.31340    0.49320    1.000
    N43      N        0.62030    0.62490    0.91220    1.000
    N44      N        0.99430    0.95530    0.81550    1.000
    N45      N        0.05490    0.98850    0.85550    1.000
    N46      N        0.05710    0.85090    0.86200    1.000
    N47      N        0.07390    0.76990    0.88390    1.000
    N48      N        0.47550    0.68660    0.99320    1.000
    Cl1      Cl       0.37916    0.62084    0.25000    1.000
    O1       O        0.40500    0.66190    0.19110    1.000
    O2       O        0.33830    0.56010    0.21840    1.000
    O3       O        0.33810    0.59500    0.30890    1.000
    O4       O        0.43990    0.66170    0.28160    1.000
    Cl2      Cl       0.62084    0.37916    0.75000    1.000
    O5       O        0.59500    0.33810    0.69110    1.000
    O6       O        0.66170    0.43990    0.71840    1.000
    O7       O        0.66190    0.40500    0.80890    1.000
    O8       O        0.56010    0.33830    0.78160    1.000
    Cl3      Cl       0.87916    0.87916    0.00000    1.000
    O9       O        0.83810    0.90500    0.94110    1.000
    O10      O        0.93990    0.83830    0.96840    1.000
    O11      O        0.90500    0.83810    0.05890    1.000
    O12      O        0.83830    0.93990    0.03160    1.000
    Cl4      Cl       0.12084    0.12084    0.50000    1.000
    O13      O        0.16190    0.09500    0.44110    1.000
    O14      O        0.06010    0.16170    0.46840    1.000
    O15      O        0.09500    0.16190    0.55890    1.000
    O16      O        0.16170    0.06010    0.53160    1.000
    Cl5      Cl       0.26923    0.26923    0.00000    1.000
    O17      O        0.23550    0.23500    0.94830    1.000
    O18      O        0.34390    0.21770    0.99600    1.000
    O19      O        0.23500    0.23550    0.05170    1.000
    O20      O        0.21770    0.34390    0.00400    1.000
    Cl6      Cl       0.73077    0.73077    0.50000    1.000
    O21      O        0.76450    0.76500    0.44830    1.000
    O22      O        0.65610    0.78230    0.49600    1.000
    O23      O        0.76500    0.76450    0.55170    1.000
    O24      O        0.78230    0.65610    0.50400    1.000
    Cl7      Cl       0.23077    0.76923    0.75000    1.000
    O25      O        0.26500    0.73550    0.69830    1.000
    O26      O        0.28230    0.84390    0.74600    1.000
    O27      O        0.26450    0.73500    0.80170    1.000
    O28      O        0.15610    0.71770    0.75400    1.000
    Cl8      Cl       0.76923    0.23077    0.25000    1.000
    O29      O        0.73500    0.26450    0.19830    1.000
    O30      O        0.71770    0.15610    0.24600    1.000
    O31      O        0.73550    0.26500    0.30170    1.000
    O32      O        0.84390    0.28230    0.25400    1.000
