# CIF file generated by openbabel 3.1.0, see https://openbabel.org
data_I
_chemical_name_common 'MITGUR01_clean'
_cell_length_a 7.168
_cell_length_b 10.723
_cell_length_c 17.155
_cell_angle_alpha 97.079
_cell_angle_beta 90
_cell_angle_gamma 90
_space_group_name_H-M_alt 'P 1'
_space_group_name_Hall 'P 1'
loop_
    _symmetry_equiv_pos_as_xyz
    x,y,z
loop_
    _atom_site_label
    _atom_site_type_symbol
    _atom_site_fract_x
    _atom_site_fract_y
    _atom_site_fract_z
    _atom_site_occupancy
    Tb1      Tb       0.47974    0.67572    0.74673    1.000
    Tb2      Tb       0.97974    0.82428    0.75327    1.000
    Tb3      Tb       0.52026    0.32428    0.25326    1.000
    Tb4      Tb       0.02026    0.17572    0.24673    1.000
    H1       H        0.67000    0.51500    0.47700    1.000
    H2       H        0.34400    0.83200    0.55100    1.000
    H3       H        0.03700    0.19400    0.56200    1.000
    H4       H        0.17000    0.98500    0.02300    1.000
    H5       H        0.84400    0.66800    0.94900    1.000
    H6       H        0.53700    0.30600    0.93800    1.000
    H7       H        0.33000    0.48500    0.52300    1.000
    H8       H        0.65600    0.16800    0.44900    1.000
    H9       H        0.96300    0.80600    0.43800    1.000
    H10      H        0.83000    0.01500    0.97700    1.000
    H11      H        0.15600    0.33200    0.05100    1.000
    H12      H        0.46300    0.69400    0.06200    1.000
    C1       C        0.74750    0.59560    0.62596    1.000
    C2       C        0.88260    0.54800    0.56168    1.000
    C3       C        0.07390    0.54200    0.57302    1.000
    C4       C        0.17330    0.58420    0.64887    1.000
    C5       C        0.80920    0.50560    0.48811    1.000
    C6       C        0.64730    0.89160    0.63491    1.000
    C7       C        0.65910    0.05370    0.53677    1.000
    C8       C        0.81990    0.12190    0.57927    1.000
    C9       C        0.41020    0.90140    0.52963    1.000
    C10      C        0.57150    0.95280    0.56673    1.000
    C11      C        0.24750    0.90440    0.87404    1.000
    C12      C        0.38260    0.95200    0.93832    1.000
    C13      C        0.57390    0.95800    0.92698    1.000
    C14      C        0.67330    0.91580    0.85113    1.000
    C15      C        0.30920    0.99440    0.01189    1.000
    C16      C        0.14730    0.60840    0.86509    1.000
    C17      C        0.15910    0.44630    0.96323    1.000
    C18      C        0.31990    0.37810    0.92073    1.000
    C19      C        0.91020    0.59860    0.97037    1.000
    C20      C        0.07150    0.54720    0.93327    1.000
    C21      C        0.25250    0.40440    0.37404    1.000
    C22      C        0.11740    0.45200    0.43832    1.000
    C23      C        0.92610    0.45800    0.42698    1.000
    C24      C        0.82670    0.41580    0.35113    1.000
    C25      C        0.19080    0.49440    0.51189    1.000
    C26      C        0.35270    0.10840    0.36509    1.000
    C27      C        0.34090    0.94630    0.46323    1.000
    C28      C        0.18010    0.87810    0.42073    1.000
    C29      C        0.58980    0.09860    0.47037    1.000
    C30      C        0.42850    0.04720    0.43327    1.000
    C31      C        0.75250    0.09560    0.12596    1.000
    C32      C        0.61740    0.04800    0.06168    1.000
    C33      C        0.42610    0.04200    0.07302    1.000
    C34      C        0.32670    0.08420    0.14887    1.000
    C35      C        0.69080    0.00560    0.98811    1.000
    C36      C        0.85270    0.39160    0.13491    1.000
    C37      C        0.84090    0.55370    0.03677    1.000
    C38      C        0.68010    0.62190    0.07927    1.000
    C39      C        0.08980    0.40140    0.02963    1.000
    C40      C        0.92850    0.45280    0.06673    1.000
    O1       O        0.57800    0.58480    0.61355    1.000
    O2       O        0.81010    0.64440    0.69206    1.000
    O3       O        0.19130    0.70311    0.67064    1.000
    O4       O        0.25360    0.50633    0.68473    1.000
    O5       O        0.53080    0.84520    0.67685    1.000
    O6       O        0.82130    0.88777    0.64340    1.000
    O7       O        0.81890    0.15320    0.64992    1.000
    O8       O        0.95400    0.14880    0.53252    1.000
    O9       O        0.07800    0.91520    0.88645    1.000
    O10      O        0.31010    0.85560    0.80794    1.000
    O11      O        0.69130    0.79689    0.82936    1.000
    O12      O        0.75360    0.99367    0.81527    1.000
    O13      O        0.03080    0.65480    0.82315    1.000
    O14      O        0.32130    0.61223    0.85660    1.000
    O15      O        0.31890    0.34680    0.85008    1.000
    O16      O        0.45400    0.35120    0.96748    1.000
    O17      O        0.42200    0.41520    0.38645    1.000
    O18      O        0.18990    0.35560    0.30794    1.000
    O19      O        0.80870    0.29689    0.32936    1.000
    O20      O        0.74640    0.49367    0.31527    1.000
    O21      O        0.46920    0.15480    0.32315    1.000
    O22      O        0.17870    0.11223    0.35660    1.000
    O23      O        0.18110    0.84680    0.35008    1.000
    O24      O        0.04600    0.85120    0.46748    1.000
    O25      O        0.92200    0.08480    0.11355    1.000
    O26      O        0.68990    0.14440    0.19206    1.000
    O27      O        0.30870    0.20311    0.17064    1.000
    O28      O        0.24640    0.00633    0.18473    1.000
    O29      O        0.96920    0.34520    0.17685    1.000
    O30      O        0.67870    0.38777    0.14340    1.000
    O31      O        0.68110    0.65320    0.14992    1.000
    O32      O        0.54600    0.64880    0.03252    1.000
