# CIF file generated by openbabel 3.1.0, see https://openbabel.org
data_I
_chemical_name_common 'GUJVIR_clean'
_cell_length_a 9.248
_cell_length_b 11.216
_cell_length_c 11.875
_cell_angle_alpha 79.639
_cell_angle_beta 74.736
_cell_angle_gamma 88.301
_space_group_name_H-M_alt 'P 1'
_space_group_name_Hall 'P 1'
loop_
    _symmetry_equiv_pos_as_xyz
    x,y,z
loop_
    _atom_site_label
    _atom_site_type_symbol
    _atom_site_fract_x
    _atom_site_fract_y
    _atom_site_fract_z
    _atom_site_occupancy
    Cd1      Cd       0.00000    0.00000    0.00000    1.000
    Cd2      Cd       0.00000    0.00000    0.50000    1.000
    H1       H        0.64370    0.05810    0.62850    1.000
    H2       H        0.78940    0.10860    0.28880    1.000
    H3       H        0.56050    0.21300    0.23100    1.000
    H4       H        0.41110    0.18080    0.33070    1.000
    H5       H        0.29050    0.36410    0.27930    1.000
    H6       H        0.13410    0.52850    0.27080    1.000
    H7       H        0.23180    0.64120    0.19430    1.000
    H8       H        0.98720    0.70650    0.60780    1.000
    H9       H        0.10560    0.82960    0.27050    1.000
    H10      H        0.43470    0.68000    0.32360    1.000
    H11      H        0.67750    0.37990    0.36840    1.000
    H12      H        0.75600    0.56370    0.41870    1.000
    H13      H        0.64640    0.67330    0.42800    1.000
    H14      H        0.01290    0.69690    0.03580    1.000
    H15      H        0.75110    0.85880    0.26770    1.000
    H16      H        0.35630    0.94190    0.37150    1.000
    H17      H        0.21060    0.89140    0.71120    1.000
    H18      H        0.43950    0.78700    0.76900    1.000
    H19      H        0.58890    0.81920    0.66930    1.000
    H20      H        0.70950    0.63590    0.72070    1.000
    H21      H        0.86590    0.47150    0.72920    1.000
    H22      H        0.76820    0.35880    0.80570    1.000
    H23      H        0.01280    0.29350    0.39220    1.000
    H24      H        0.89440    0.17040    0.72950    1.000
    H25      H        0.56530    0.32000    0.67640    1.000
    H26      H        0.32250    0.62010    0.63160    1.000
    H27      H        0.24400    0.43630    0.58130    1.000
    H28      H        0.35360    0.32670    0.57200    1.000
    H29      H        0.98710    0.30310    0.96420    1.000
    H30      H        0.24890    0.14120    0.73230    1.000
    C1       C        0.64800    0.08110    0.54840    1.000
    C2       C        0.72900    0.10710    0.36530    1.000
    C3       C        0.50900    0.21950    0.31210    1.000
    C4       C        0.48900    0.35140    0.32100    1.000
    C5       C        0.36250    0.40830    0.29700    1.000
    C6       C        0.34340    0.53030    0.29930    1.000
    C7       C        0.20430    0.59050    0.27230    1.000
    C8       C        0.02670    0.71030    0.52670    1.000
    C9       C        0.08930    0.77900    0.34400    1.000
    C10      C        0.44820    0.59750    0.32410    1.000
    C11      C        0.59420    0.41800    0.34950    1.000
    C12      C        0.57550    0.54210    0.35000    1.000
    C13      C        0.69510    0.61720    0.37720    1.000
    C14      C        0.94250    0.71070    0.10400    1.000
    C15      C        0.80230    0.79970    0.22780    1.000
    C16      C        0.35200    0.91890    0.45160    1.000
    C17      C        0.27100    0.89290    0.63470    1.000
    C18      C        0.49100    0.78050    0.68790    1.000
    C19      C        0.51100    0.64860    0.67900    1.000
    C20      C        0.63750    0.59170    0.70300    1.000
    C21      C        0.65660    0.46970    0.70070    1.000
    C22      C        0.79570    0.40950    0.72770    1.000
    C23      C        0.97330    0.28970    0.47330    1.000
    C24      C        0.91070    0.22100    0.65600    1.000
    C25      C        0.55180    0.40250    0.67590    1.000
    C26      C        0.40580    0.58200    0.65050    1.000
    C27      C        0.42450    0.45790    0.65000    1.000
    C28      C        0.30490    0.38280    0.62280    1.000
    C29      C        0.05750    0.28930    0.89600    1.000
    C30      C        0.19770    0.20030    0.77220    1.000
    S1       S        0.84560    0.88110    0.80690    1.000
    S2       S        0.15440    0.11890    0.19310    1.000
    N1       N        0.59470    0.15460    0.39210    1.000
    N2       N        0.53910    0.13900    0.51280    1.000
    N3       N        0.76500    0.05680    0.46440    1.000
    N4       N        0.13080    0.66500    0.36040    1.000
    N5       N        0.09160    0.62010    0.48060    1.000
    N6       N        0.02210    0.81110    0.44530    1.000
    N7       N        0.78860    0.68330    0.26870    1.000
    N8       N        0.87940    0.62250    0.18920    1.000
    N9       N        0.89920    0.82220    0.12150    1.000
    N10      N        0.40530    0.84540    0.60790    1.000
    N11      N        0.46090    0.86100    0.48720    1.000
    N12      N        0.23500    0.94320    0.53560    1.000
    N13      N        0.86920    0.33500    0.63960    1.000
    N14      N        0.90840    0.37990    0.51940    1.000
    N15      N        0.97790    0.18890    0.55470    1.000
    N16      N        0.21140    0.31670    0.73130    1.000
    N17      N        0.12060    0.37750    0.81080    1.000
    N18      N        0.10080    0.17780    0.87850    1.000
    O1       O        0.85480    0.90840    0.68200    1.000
    O2       O        0.85190    0.75170    0.84010    1.000
    O3       O        0.96810    0.94030    0.83190    1.000
    O4       O        0.70130    0.91310    0.87510    1.000
    O5       O        0.14520    0.09160    0.31800    1.000
    O6       O        0.14810    0.24830    0.15990    1.000
    O7       O        0.03190    0.05970    0.16810    1.000
    O8       O        0.29870    0.08690    0.12490    1.000
