# CIF file generated by openbabel 3.1.0, see https://openbabel.org
data_I
_chemical_name_common 'image0'
_cell_length_a 16.6549
_cell_length_b 6.3378
_cell_length_c 22.208
_cell_angle_alpha 90
_cell_angle_beta 94.862
_cell_angle_gamma 90
_space_group_name_H-M_alt 'P 1'
_space_group_name_Hall 'P 1'
loop_
    _symmetry_equiv_pos_as_xyz
    x,y,z
loop_
    _atom_site_label
    _atom_site_type_symbol
    _atom_site_fract_x
    _atom_site_fract_y
    _atom_site_fract_z
    _atom_site_occupancy
    Ti1      Ti       0.28270    0.00700    0.57530    1.000
    Ti2      Ti       0.35950    0.99780    0.80110    1.000
    P1       P        0.23060    0.50160    0.56910    1.000
    P2       P        0.44240    0.92760    0.66690    1.000
    P3       P        0.19560    0.00070    0.70640    1.000
    F1       F        0.17590    0.01580    0.54460    1.000
    O1       O        0.28760    0.31210    0.57720    1.000
    O2       O        0.24850    0.99830    0.65380    1.000
    O3       O        0.28260    0.70020    0.57250    1.000
    O4       O        0.18210    0.48980    0.50720    1.000
    O5       O        0.39480    0.99540    0.60800    1.000
    O6       O        0.40500    0.00600    0.72270    1.000
    O7       O        0.44070    0.68180    0.66380    1.000
    O8       O        0.52880    0.00620    0.66500    1.000
    O9       O        0.13960    0.80780    0.70350    1.000
    O10      O        0.14040    0.19550    0.70300    1.000
    O11      O        0.17160    0.50330    0.61860    1.000
    O12      O        0.25010    0.00190    0.76560    1.000
    Ti3      Ti       0.78270    0.50700    0.57530    1.000
    Ti4      Ti       0.85950    0.49780    0.80110    1.000
    P4       P        0.73060    0.00160    0.56910    1.000
    P5       P        0.94240    0.42760    0.66690    1.000
    P6       P        0.69560    0.50070    0.70640    1.000
    F2       F        0.67590    0.51580    0.54460    1.000
    O13      O        0.78760    0.81210    0.57720    1.000
    O14      O        0.74850    0.49830    0.65380    1.000
    O15      O        0.78260    0.20020    0.57250    1.000
    O16      O        0.68210    0.98980    0.50720    1.000
    O17      O        0.89480    0.49540    0.60800    1.000
    O18      O        0.90500    0.50600    0.72270    1.000
    O19      O        0.94070    0.18180    0.66380    1.000
    O20      O        0.02880    0.50620    0.66500    1.000
    O21      O        0.63960    0.30780    0.70350    1.000
    O22      O        0.64040    0.69550    0.70300    1.000
    O23      O        0.67160    0.00330    0.61860    1.000
    O24      O        0.75010    0.50190    0.76560    1.000
    Ti5      Ti       0.71730    0.00700    0.92470    1.000
    Ti6      Ti       0.64050    0.99780    0.69890    1.000
    P7       P        0.76940    0.50160    0.93090    1.000
    P8       P        0.55760    0.92760    0.83310    1.000
    P9       P        0.80440    0.00070    0.79360    1.000
    F3       F        0.82410    0.01580    0.95540    1.000
    O25      O        0.71240    0.31210    0.92280    1.000
    O26      O        0.75150    0.99830    0.84620    1.000
    O27      O        0.71740    0.70020    0.92750    1.000
    O28      O        0.81790    0.48980    0.99280    1.000
    O29      O        0.60520    0.99540    0.89200    1.000
    O30      O        0.59500    0.00600    0.77730    1.000
    O31      O        0.55930    0.68180    0.83620    1.000
    O32      O        0.47120    0.00620    0.83500    1.000
    O33      O        0.86040    0.80780    0.79650    1.000
    O34      O        0.85960    0.19550    0.79700    1.000
    O35      O        0.82840    0.50330    0.88140    1.000
    O36      O        0.74990    0.00190    0.73440    1.000
    Ti7      Ti       0.21730    0.50700    0.92470    1.000
    Ti8      Ti       0.14050    0.49780    0.69890    1.000
    P10      P        0.26940    0.00160    0.93090    1.000
    P11      P        0.05760    0.42760    0.83310    1.000
    P12      P        0.30440    0.50070    0.79360    1.000
    F4       F        0.32410    0.51580    0.95540    1.000
    O37      O        0.21240    0.81210    0.92280    1.000
    O38      O        0.25150    0.49830    0.84620    1.000
    O39      O        0.21740    0.20020    0.92750    1.000
    O40      O        0.31790    0.98980    0.99280    1.000
    O41      O        0.10520    0.49540    0.89200    1.000
    O42      O        0.09500    0.50600    0.77730    1.000
    O43      O        0.05930    0.18180    0.83620    1.000
    O44      O        0.97120    0.50620    0.83500    1.000
    O45      O        0.36040    0.30780    0.79650    1.000
    O46      O        0.35960    0.69550    0.79700    1.000
    O47      O        0.32840    0.00330    0.88140    1.000
    O48      O        0.24990    0.50190    0.73440    1.000
    Ti9      Ti       0.71730    0.99300    0.42470    1.000
    Ti10     Ti       0.64050    0.00220    0.19890    1.000
    P13      P        0.76940    0.49840    0.43090    1.000
    P14      P        0.55760    0.07240    0.33310    1.000
    P15      P        0.80440    0.99930    0.29360    1.000
    F5       F        0.82410    0.98420    0.45540    1.000
    O49      O        0.71240    0.68790    0.42280    1.000
    O50      O        0.75150    0.00170    0.34620    1.000
    O51      O        0.71740    0.29980    0.42750    1.000
    O52      O        0.81790    0.51020    0.49280    1.000
    O53      O        0.60520    0.00460    0.39200    1.000
    O54      O        0.59500    0.99400    0.27730    1.000
    O55      O        0.55930    0.31820    0.33620    1.000
    O56      O        0.47120    0.99380    0.33500    1.000
    O57      O        0.86040    0.19220    0.29650    1.000
    O58      O        0.85960    0.80450    0.29700    1.000
    O59      O        0.82840    0.49670    0.38140    1.000
    O60      O        0.74990    0.99810    0.23440    1.000
    Ti11     Ti       0.21730    0.49300    0.42470    1.000
    Ti12     Ti       0.14050    0.50220    0.19890    1.000
    P16      P        0.26940    0.99840    0.43090    1.000
    P17      P        0.05760    0.57240    0.33310    1.000
    P18      P        0.30440    0.49930    0.29360    1.000
    F6       F        0.32410    0.48420    0.45540    1.000
    O61      O        0.21240    0.18790    0.42280    1.000
    O62      O        0.25150    0.50170    0.34620    1.000
    O63      O        0.21740    0.79980    0.42750    1.000
    O64      O        0.31790    0.01020    0.49280    1.000
    O65      O        0.10520    0.50460    0.39200    1.000
    O66      O        0.09500    0.49400    0.27730    1.000
    O67      O        0.05930    0.81820    0.33620    1.000
    O68      O        0.97120    0.49380    0.33500    1.000
    O69      O        0.36040    0.69220    0.29650    1.000
    O70      O        0.35960    0.30450    0.29700    1.000
    O71      O        0.32840    0.99670    0.38140    1.000
    O72      O        0.24990    0.49810    0.23440    1.000
    Ti13     Ti       0.28270    0.99300    0.07530    1.000
    Ti14     Ti       0.35950    0.00220    0.30110    1.000
    P19      P        0.23060    0.49840    0.06910    1.000
    P20      P        0.44240    0.07240    0.16690    1.000
    P21      P        0.19560    0.99930    0.20640    1.000
    F7       F        0.17590    0.98420    0.04460    1.000
    O73      O        0.28760    0.68790    0.07720    1.000
    O74      O        0.24850    0.00170    0.15380    1.000
    O75      O        0.28260    0.29980    0.07250    1.000
    O76      O        0.18210    0.51020    0.00720    1.000
    O77      O        0.39480    0.00460    0.10800    1.000
    O78      O        0.40500    0.99400    0.22270    1.000
    O79      O        0.44070    0.31820    0.16380    1.000
    O80      O        0.52880    0.99380    0.16500    1.000
    O81      O        0.13960    0.19220    0.20350    1.000
    O82      O        0.14040    0.80450    0.20300    1.000
    O83      O        0.17160    0.49670    0.11860    1.000
    O84      O        0.25010    0.99810    0.26560    1.000
    Ti15     Ti       0.78270    0.49300    0.07530    1.000
    Ti16     Ti       0.85950    0.50220    0.30110    1.000
    P22      P        0.73060    0.99840    0.06910    1.000
    P23      P        0.94240    0.57240    0.16690    1.000
    P24      P        0.69560    0.49930    0.20640    1.000
    F8       F        0.67590    0.48420    0.04460    1.000
    O85      O        0.78760    0.18790    0.07720    1.000
    O86      O        0.74850    0.50170    0.15380    1.000
    O87      O        0.78260    0.79980    0.07250    1.000
    O88      O        0.68210    0.01020    0.00720    1.000
    O89      O        0.89480    0.50460    0.10800    1.000
    O90      O        0.90500    0.49400    0.22270    1.000
    O91      O        0.94070    0.81820    0.16380    1.000
    O92      O        0.02880    0.49380    0.16500    1.000
    O93      O        0.63960    0.69220    0.20350    1.000
    O94      O        0.64040    0.30450    0.20300    1.000
    O95      O        0.67160    0.99670    0.11860    1.000
    O96      O        0.75010    0.49810    0.26560    1.000
