# CIF file generated by openbabel 3.1.0, see https://openbabel.org
data_I
_chemical_name_common 'image0'
_cell_length_a 27.314
_cell_length_b 13.126
_cell_length_c 14
_cell_angle_alpha 90
_cell_angle_beta 96.143
_cell_angle_gamma 90
_space_group_name_H-M_alt 'P 1'
_space_group_name_Hall 'P 1'
loop_
    _symmetry_equiv_pos_as_xyz
    x,y,z
loop_
    _atom_site_label
    _atom_site_type_symbol
    _atom_site_fract_x
    _atom_site_fract_y
    _atom_site_fract_z
    _atom_site_occupancy
    Cu1      Cu       0.21095    0.69040    0.49679    1.000
    O1       O        0.18906    0.79560    0.58390    1.000
    O2       O        0.25507    0.89860    0.59020    1.000
    O3       O        0.25147    0.12320    0.89300    1.000
    O4       O        0.18609    0.22540    0.88680    1.000
    O5       O        0.09480    0.24410    0.56360    1.000
    O6       O        0.05720    0.31200    0.67820    1.000
    O7       O        0.96050    0.32300    0.63250    1.000
    O8       O        0.92870    0.25510    0.48990    1.000
    C1       C        0.21190    0.87810    0.60540    1.000
    C2       C        0.18600    0.95540    0.65930    1.000
    C3       C        0.21080    0.01700    0.72860    1.000
    H1       H        0.24450    0.00950    0.74440    1.000
    C4       C        0.18430    0.09220    0.77570    1.000
    C5       C        0.13410    0.10410    0.74700    1.000
    H2       H        0.11700    0.15530    0.77530    1.000
    C6       C        0.10840    0.04190    0.67720    1.000
    C7       C        0.13450    0.96650    0.63710    1.000
    H3       H        0.11770    0.92130    0.59410    1.000
    C8       C        0.21020    0.14970    0.85690    1.000
    C9       C        0.05470    0.05350    0.64810    1.000
    C10      C        0.02560    0.96610    0.64120    1.000
    H4       H        0.04010    0.90260    0.65320    1.000
    C11      C        0.97490    0.97260    0.61650    1.000
    H5       H        0.95560    0.91460    0.61880    1.000
    C12      C        0.95420    0.06030    0.58990    1.000
    H6       H        0.92120    0.06190    0.56500    1.000
    C13      C        0.98130    0.15100    0.59900    1.000
    C14      C        0.03220    0.14550    0.62590    1.000
    C15      C        0.06260    0.23790    0.61840    1.000
    C16      C        0.95400    0.24600    0.56900    1.000
    Cu2      Cu       0.71095    0.19040    0.49679    1.000
    O9       O        0.68906    0.29560    0.58390    1.000
    O10      O        0.75507    0.39860    0.59020    1.000
    O11      O        0.75147    0.62320    0.89300    1.000
    O12      O        0.68609    0.72540    0.88680    1.000
    O13      O        0.59480    0.74410    0.56360    1.000
    O14      O        0.55720    0.81200    0.67820    1.000
    O15      O        0.46050    0.82300    0.63250    1.000
    O16      O        0.42870    0.75510    0.48990    1.000
    C17      C        0.71190    0.37810    0.60540    1.000
    C18      C        0.68600    0.45540    0.65930    1.000
    C19      C        0.71080    0.51700    0.72860    1.000
    H7       H        0.74450    0.50950    0.74440    1.000
    C20      C        0.68430    0.59220    0.77570    1.000
    C21      C        0.63410    0.60410    0.74700    1.000
    H8       H        0.61700    0.65530    0.77530    1.000
    C22      C        0.60840    0.54190    0.67720    1.000
    C23      C        0.63450    0.46650    0.63710    1.000
    H9       H        0.61770    0.42130    0.59410    1.000
    C24      C        0.71020    0.64970    0.85690    1.000
    C25      C        0.55470    0.55350    0.64810    1.000
    C26      C        0.52560    0.46610    0.64120    1.000
    H10      H        0.54010    0.40260    0.65320    1.000
    C27      C        0.47490    0.47260    0.61650    1.000
    H11      H        0.45560    0.41460    0.61880    1.000
    C28      C        0.45420    0.56030    0.58990    1.000
    H12      H        0.42120    0.56190    0.56500    1.000
    C29      C        0.48130    0.65100    0.59900    1.000
    C30      C        0.53220    0.64550    0.62590    1.000
    C31      C        0.56260    0.73790    0.61840    1.000
    C32      C        0.45400    0.74600    0.56900    1.000
    Cu3      Cu       0.78905    0.69040    0.00321    1.000
    O17      O        0.81094    0.79560    0.91610    1.000
    O18      O        0.74493    0.89860    0.90980    1.000
    O19      O        0.74853    0.12320    0.60700    1.000
    O20      O        0.81391    0.22540    0.61320    1.000
    O21      O        0.90520    0.24410    0.93640    1.000
    O22      O        0.94280    0.31200    0.82180    1.000
    O23      O        0.03950    0.32300    0.86750    1.000
    O24      O        0.07130    0.25510    0.01010    1.000
    C33      C        0.78810    0.87810    0.89460    1.000
    C34      C        0.81400    0.95540    0.84070    1.000
    C35      C        0.78920    0.01700    0.77140    1.000
    H13      H        0.75550    0.00950    0.75560    1.000
    C36      C        0.81570    0.09220    0.72430    1.000
    C37      C        0.86590    0.10410    0.75300    1.000
    H14      H        0.88300    0.15530    0.72470    1.000
    C38      C        0.89160    0.04190    0.82280    1.000
    C39      C        0.86550    0.96650    0.86290    1.000
    H15      H        0.88230    0.92130    0.90590    1.000
    C40      C        0.78980    0.14970    0.64310    1.000
    C41      C        0.94530    0.05350    0.85190    1.000
    C42      C        0.97440    0.96610    0.85880    1.000
    H16      H        0.95990    0.90260    0.84680    1.000
    C43      C        0.02510    0.97260    0.88350    1.000
    H17      H        0.04440    0.91460    0.88120    1.000
    C44      C        0.04580    0.06030    0.91010    1.000
    H18      H        0.07880    0.06190    0.93500    1.000
    C45      C        0.01870    0.15100    0.90100    1.000
    C46      C        0.96780    0.14550    0.87410    1.000
    C47      C        0.93740    0.23790    0.88160    1.000
    C48      C        0.04600    0.24600    0.93100    1.000
    Cu4      Cu       0.28905    0.19040    0.00321    1.000
    O25      O        0.31094    0.29560    0.91610    1.000
    O26      O        0.24493    0.39860    0.90980    1.000
    O27      O        0.24853    0.62320    0.60700    1.000
    O28      O        0.31391    0.72540    0.61320    1.000
    O29      O        0.40520    0.74410    0.93640    1.000
    O30      O        0.44280    0.81200    0.82180    1.000
    O31      O        0.53950    0.82300    0.86750    1.000
    O32      O        0.57130    0.75510    0.01010    1.000
    C49      C        0.28810    0.37810    0.89460    1.000
    C50      C        0.31400    0.45540    0.84070    1.000
    C51      C        0.28920    0.51700    0.77140    1.000
    H19      H        0.25550    0.50950    0.75560    1.000
    C52      C        0.31570    0.59220    0.72430    1.000
    C53      C        0.36590    0.60410    0.75300    1.000
    H20      H        0.38300    0.65530    0.72470    1.000
    C54      C        0.39160    0.54190    0.82280    1.000
    C55      C        0.36550    0.46650    0.86290    1.000
    H21      H        0.38230    0.42130    0.90590    1.000
    C56      C        0.28980    0.64970    0.64310    1.000
    C57      C        0.44530    0.55350    0.85190    1.000
    C58      C        0.47440    0.46610    0.85880    1.000
    H22      H        0.45990    0.40260    0.84680    1.000
    C59      C        0.52510    0.47260    0.88350    1.000
    H23      H        0.54440    0.41460    0.88120    1.000
    C60      C        0.54580    0.56030    0.91010    1.000
    H24      H        0.57880    0.56190    0.93500    1.000
    C61      C        0.51870    0.65100    0.90100    1.000
    C62      C        0.46780    0.64550    0.87410    1.000
    C63      C        0.43740    0.73790    0.88160    1.000
    C64      C        0.54600    0.74600    0.93100    1.000
    Cu5      Cu       0.78905    0.30960    0.50321    1.000
    O33      O        0.81094    0.20440    0.41610    1.000
    O34      O        0.74493    0.10140    0.40980    1.000
    O35      O        0.74853    0.87680    0.10700    1.000
    O36      O        0.81391    0.77460    0.11320    1.000
    O37      O        0.90520    0.75590    0.43640    1.000
    O38      O        0.94280    0.68800    0.32180    1.000
    O39      O        0.03950    0.67700    0.36750    1.000
    O40      O        0.07130    0.74490    0.51010    1.000
    C65      C        0.78810    0.12190    0.39460    1.000
    C66      C        0.81400    0.04460    0.34070    1.000
    C67      C        0.78920    0.98300    0.27140    1.000
    H25      H        0.75550    0.99050    0.25560    1.000
    C68      C        0.81570    0.90780    0.22430    1.000
    C69      C        0.86590    0.89590    0.25300    1.000
    H26      H        0.88300    0.84470    0.22470    1.000
    C70      C        0.89160    0.95810    0.32280    1.000
    C71      C        0.86550    0.03350    0.36290    1.000
    H27      H        0.88230    0.07870    0.40590    1.000
    C72      C        0.78980    0.85030    0.14310    1.000
    C73      C        0.94530    0.94650    0.35190    1.000
    C74      C        0.97440    0.03390    0.35880    1.000
    H28      H        0.95990    0.09740    0.34680    1.000
    C75      C        0.02510    0.02740    0.38350    1.000
    H29      H        0.04440    0.08540    0.38120    1.000
    C76      C        0.04580    0.93970    0.41010    1.000
    H30      H        0.07880    0.93810    0.43500    1.000
    C77      C        0.01870    0.84900    0.40100    1.000
    C78      C        0.96780    0.85450    0.37410    1.000
    C79      C        0.93740    0.76210    0.38160    1.000
    C80      C        0.04600    0.75400    0.43100    1.000
    Cu6      Cu       0.28905    0.80960    0.50321    1.000
    O41      O        0.31094    0.70440    0.41610    1.000
    O42      O        0.24493    0.60140    0.40980    1.000
    O43      O        0.24853    0.37680    0.10700    1.000
    O44      O        0.31391    0.27460    0.11320    1.000
    O45      O        0.40520    0.25590    0.43640    1.000
    O46      O        0.44280    0.18800    0.32180    1.000
    O47      O        0.53950    0.17700    0.36750    1.000
    O48      O        0.57130    0.24490    0.51010    1.000
    C81      C        0.28810    0.62190    0.39460    1.000
    C82      C        0.31400    0.54460    0.34070    1.000
    C83      C        0.28920    0.48300    0.27140    1.000
    H31      H        0.25550    0.49050    0.25560    1.000
    C84      C        0.31570    0.40780    0.22430    1.000
    C85      C        0.36590    0.39590    0.25300    1.000
    H32      H        0.38300    0.34470    0.22470    1.000
    C86      C        0.39160    0.45810    0.32280    1.000
    C87      C        0.36550    0.53350    0.36290    1.000
    H33      H        0.38230    0.57870    0.40590    1.000
    C88      C        0.28980    0.35030    0.14310    1.000
    C89      C        0.44530    0.44650    0.35190    1.000
    C90      C        0.47440    0.53390    0.35880    1.000
    H34      H        0.45990    0.59740    0.34680    1.000
    C91      C        0.52510    0.52740    0.38350    1.000
    H35      H        0.54440    0.58540    0.38120    1.000
    C92      C        0.54580    0.43970    0.41010    1.000
    H36      H        0.57880    0.43810    0.43500    1.000
    C93      C        0.51870    0.34900    0.40100    1.000
    C94      C        0.46780    0.35450    0.37410    1.000
    C95      C        0.43740    0.26210    0.38160    1.000
    C96      C        0.54600    0.25400    0.43100    1.000
    Cu7      Cu       0.21095    0.30960    0.99679    1.000
    O49      O        0.18906    0.20440    0.08390    1.000
    O50      O        0.25507    0.10140    0.09020    1.000
    O51      O        0.25147    0.87680    0.39300    1.000
    O52      O        0.18609    0.77460    0.38680    1.000
    O53      O        0.09480    0.75590    0.06360    1.000
    O54      O        0.05720    0.68800    0.17820    1.000
    O55      O        0.96050    0.67700    0.13250    1.000
    O56      O        0.92870    0.74490    0.98990    1.000
    C97      C        0.21190    0.12190    0.10540    1.000
    C98      C        0.18600    0.04460    0.15930    1.000
    C99      C        0.21080    0.98300    0.22860    1.000
    H37      H        0.24450    0.99050    0.24440    1.000
    C100     C        0.18430    0.90780    0.27570    1.000
    C101     C        0.13410    0.89590    0.24700    1.000
    H38      H        0.11700    0.84470    0.27530    1.000
    C102     C        0.10840    0.95810    0.17720    1.000
    C103     C        0.13450    0.03350    0.13710    1.000
    H39      H        0.11770    0.07870    0.09410    1.000
    C104     C        0.21020    0.85030    0.35690    1.000
    C105     C        0.05470    0.94650    0.14810    1.000
    C106     C        0.02560    0.03390    0.14120    1.000
    H40      H        0.04010    0.09740    0.15320    1.000
    C107     C        0.97490    0.02740    0.11650    1.000
    H41      H        0.95560    0.08540    0.11880    1.000
    C108     C        0.95420    0.93970    0.08990    1.000
    H42      H        0.92120    0.93810    0.06500    1.000
    C109     C        0.98130    0.84900    0.09900    1.000
    C110     C        0.03220    0.85450    0.12590    1.000
    C111     C        0.06260    0.76210    0.11840    1.000
    C112     C        0.95400    0.75400    0.06900    1.000
    Cu8      Cu       0.71095    0.80960    0.99679    1.000
    O57      O        0.68906    0.70440    0.08390    1.000
    O58      O        0.75507    0.60140    0.09020    1.000
    O59      O        0.75147    0.37680    0.39300    1.000
    O60      O        0.68609    0.27460    0.38680    1.000
    O61      O        0.59480    0.25590    0.06360    1.000
    O62      O        0.55720    0.18800    0.17820    1.000
    O63      O        0.46050    0.17700    0.13250    1.000
    O64      O        0.42870    0.24490    0.98990    1.000
    C113     C        0.71190    0.62190    0.10540    1.000
    C114     C        0.68600    0.54460    0.15930    1.000
    C115     C        0.71080    0.48300    0.22860    1.000
    H43      H        0.74450    0.49050    0.24440    1.000
    C116     C        0.68430    0.40780    0.27570    1.000
    C117     C        0.63410    0.39590    0.24700    1.000
    H44      H        0.61700    0.34470    0.27530    1.000
    C118     C        0.60840    0.45810    0.17720    1.000
    C119     C        0.63450    0.53350    0.13710    1.000
    H45      H        0.61770    0.57870    0.09410    1.000
    C120     C        0.71020    0.35030    0.35690    1.000
    C121     C        0.55470    0.44650    0.14810    1.000
    C122     C        0.52560    0.53390    0.14120    1.000
    H46      H        0.54010    0.59740    0.15320    1.000
    C123     C        0.47490    0.52740    0.11650    1.000
    H47      H        0.45560    0.58540    0.11880    1.000
    C124     C        0.45420    0.43970    0.08990    1.000
    H48      H        0.42120    0.43810    0.06500    1.000
    C125     C        0.48130    0.34900    0.09900    1.000
    C126     C        0.53220    0.35450    0.12590    1.000
    C127     C        0.56260    0.26210    0.11840    1.000
    C128     C        0.45400    0.25400    0.06900    1.000
    Cu9      Cu       0.00000    0.32316    0.75000    1.000
    Cu10     Cu       0.50000    0.82316    0.75000    1.000
    Cu11     Cu       0.00000    0.67684    0.25000    1.000
    Cu12     Cu       0.50000    0.17684    0.25000    1.000
