# CIF file generated by openbabel 3.1.0, see https://openbabel.org
data_I
_chemical_name_common 'image0'
_cell_length_a 10.979
_cell_length_b 16.6505
_cell_length_c 19.3795
_cell_angle_alpha 90
_cell_angle_beta 90
_cell_angle_gamma 90
_space_group_name_H-M_alt 'P 1'
_space_group_name_Hall 'P 1'
loop_
    _symmetry_equiv_pos_as_xyz
    x,y,z
loop_
    _atom_site_label
    _atom_site_type_symbol
    _atom_site_fract_x
    _atom_site_fract_y
    _atom_site_fract_z
    _atom_site_occupancy
    O1       O        0.36900    0.85479    0.18412    1.000
    O2       O        0.22330    0.84520    0.10727    1.000
    C1       C        0.48100    0.17640    0.00290    1.000
    H1       H        0.56780    0.18090    0.01150    1.000
    H2       H        0.46920    0.17230    0.95340    1.000
    C2       C        0.43330    0.10090    0.03720    1.000
    C3       C        0.48140    0.07590    0.09950    1.000
    H3       H        0.54030    0.10710    0.12120    1.000
    C4       C        0.44330    0.00570    0.13000    1.000
    H4       H        0.47840    0.98940    0.17140    1.000
    C5       C        0.35450    0.95940    0.10028    1.000
    C6       C        0.30400    0.98440    0.03700    1.000
    H5       H        0.24340    0.95400    0.01600    1.000
    C7       C        0.34470    0.05410    0.00620    1.000
    H6       H        0.31210    0.06980    0.96400    1.000
    C8       C        0.31330    0.88220    0.13210    1.000
    O3       O        0.13100    0.14521    0.68412    1.000
    O4       O        0.27670    0.15480    0.60727    1.000
    C9       C        0.01900    0.82360    0.50290    1.000
    H7       H        0.93220    0.81910    0.51150    1.000
    H8       H        0.03080    0.82770    0.45340    1.000
    C10      C        0.06670    0.89910    0.53720    1.000
    C11      C        0.01860    0.92410    0.59950    1.000
    H9       H        0.95970    0.89290    0.62120    1.000
    C12      C        0.05670    0.99430    0.63000    1.000
    H10      H        0.02160    0.01060    0.67140    1.000
    C13      C        0.14550    0.04060    0.60028    1.000
    C14      C        0.19600    0.01560    0.53700    1.000
    H11      H        0.25660    0.04600    0.51600    1.000
    C15      C        0.15530    0.94590    0.50620    1.000
    H12      H        0.18790    0.93020    0.46400    1.000
    C16      C        0.18670    0.11780    0.63210    1.000
    O5       O        0.63100    0.35479    0.81588    1.000
    O6       O        0.77670    0.34520    0.89273    1.000
    C17      C        0.51900    0.67640    0.99710    1.000
    H13      H        0.43220    0.68090    0.98850    1.000
    H14      H        0.53080    0.67230    0.04660    1.000
    C18      C        0.56670    0.60090    0.96280    1.000
    C19      C        0.51860    0.57590    0.90050    1.000
    H15      H        0.45970    0.60710    0.87880    1.000
    C20      C        0.55670    0.50570    0.87000    1.000
    H16      H        0.52160    0.48940    0.82860    1.000
    C21      C        0.64550    0.45940    0.89972    1.000
    C22      C        0.69600    0.48440    0.96300    1.000
    H17      H        0.75660    0.45400    0.98400    1.000
    C23      C        0.65530    0.55410    0.99380    1.000
    H18      H        0.68790    0.56980    0.03600    1.000
    C24      C        0.68670    0.38220    0.86790    1.000
    O7       O        0.86900    0.64521    0.31588    1.000
    O8       O        0.72330    0.65480    0.39273    1.000
    C25      C        0.98100    0.32360    0.49710    1.000
    H19      H        0.06780    0.31910    0.48850    1.000
    H20      H        0.96920    0.32770    0.54660    1.000
    C26      C        0.93330    0.39910    0.46280    1.000
    C27      C        0.98140    0.42410    0.40050    1.000
    H21      H        0.04030    0.39290    0.37880    1.000
    C28      C        0.94330    0.49430    0.37000    1.000
    H22      H        0.97840    0.51060    0.32860    1.000
    C29      C        0.85450    0.54060    0.39972    1.000
    C30      C        0.80400    0.51560    0.46300    1.000
    H23      H        0.74340    0.54600    0.48400    1.000
    C31      C        0.84470    0.44590    0.49380    1.000
    H24      H        0.81210    0.43020    0.53600    1.000
    C32      C        0.81330    0.61780    0.36790    1.000
    O9       O        0.63100    0.14521    0.81588    1.000
    O10      O        0.77670    0.15480    0.89273    1.000
    C33      C        0.51900    0.82360    0.99710    1.000
    H25      H        0.43220    0.81910    0.98850    1.000
    H26      H        0.53080    0.82770    0.04660    1.000
    C34      C        0.56670    0.89910    0.96280    1.000
    C35      C        0.51860    0.92410    0.90050    1.000
    H27      H        0.45970    0.89290    0.87880    1.000
    C36      C        0.55670    0.99430    0.87000    1.000
    H28      H        0.52160    0.01060    0.82860    1.000
    C37      C        0.64550    0.04060    0.89972    1.000
    C38      C        0.69600    0.01560    0.96300    1.000
    H29      H        0.75660    0.04600    0.98400    1.000
    C39      C        0.65530    0.94590    0.99380    1.000
    H30      H        0.68790    0.93020    0.03600    1.000
    C40      C        0.68670    0.11780    0.86790    1.000
    O11      O        0.86900    0.85479    0.31588    1.000
    O12      O        0.72330    0.84520    0.39273    1.000
    C41      C        0.98100    0.17640    0.49710    1.000
    H31      H        0.06780    0.18090    0.48850    1.000
    H32      H        0.96920    0.17230    0.54660    1.000
    C42      C        0.93330    0.10090    0.46280    1.000
    C43      C        0.98140    0.07590    0.40050    1.000
    H33      H        0.04030    0.10710    0.37880    1.000
    C44      C        0.94330    0.00570    0.37000    1.000
    H34      H        0.97840    0.98940    0.32860    1.000
    C45      C        0.85450    0.95940    0.39972    1.000
    C46      C        0.80400    0.98440    0.46300    1.000
    H35      H        0.74340    0.95400    0.48400    1.000
    C47      C        0.84470    0.05410    0.49380    1.000
    H36      H        0.81210    0.06980    0.53600    1.000
    C48      C        0.81330    0.88220    0.36790    1.000
    O13      O        0.36900    0.64521    0.18412    1.000
    O14      O        0.22330    0.65480    0.10727    1.000
    C49      C        0.48100    0.32360    0.00290    1.000
    H37      H        0.56780    0.31910    0.01150    1.000
    H38      H        0.46920    0.32770    0.95340    1.000
    C50      C        0.43330    0.39910    0.03720    1.000
    C51      C        0.48140    0.42410    0.09950    1.000
    H39      H        0.54030    0.39290    0.12120    1.000
    C52      C        0.44330    0.49430    0.13000    1.000
    H40      H        0.47840    0.51060    0.17140    1.000
    C53      C        0.35450    0.54060    0.10028    1.000
    C54      C        0.30400    0.51560    0.03700    1.000
    H41      H        0.24340    0.54600    0.01600    1.000
    C55      C        0.34470    0.44590    0.00620    1.000
    H42      H        0.31210    0.43020    0.96400    1.000
    C56      C        0.31330    0.61780    0.13210    1.000
    O15      O        0.13100    0.35479    0.68412    1.000
    O16      O        0.27670    0.34520    0.60727    1.000
    C57      C        0.01900    0.67640    0.50290    1.000
    H43      H        0.93220    0.68090    0.51150    1.000
    H44      H        0.03080    0.67230    0.45340    1.000
    C58      C        0.06670    0.60090    0.53720    1.000
    C59      C        0.01860    0.57590    0.59950    1.000
    H45      H        0.95970    0.60710    0.62120    1.000
    C60      C        0.05670    0.50570    0.63000    1.000
    H46      H        0.02160    0.48940    0.67140    1.000
    C61      C        0.14550    0.45940    0.60028    1.000
    C62      C        0.19600    0.48440    0.53700    1.000
    H47      H        0.25660    0.45400    0.51600    1.000
    C63      C        0.15530    0.55410    0.50620    1.000
    H48      H        0.18790    0.56980    0.46400    1.000
    C64      C        0.18670    0.38220    0.63210    1.000
    N1       N        0.41860    0.25000    0.02880    1.000
    Eu1      Eu       0.28799    0.25000    0.70364    1.000
    O17      O        0.17960    0.25000    0.80552    1.000
    O18      O        0.98570    0.25000    0.83470    1.000
    O19      O        0.34850    0.25000    0.15380    1.000
    H49      H        0.35720    0.25000    0.19580    1.000
    O20      O        0.15140    0.25000    0.18140    1.000
    C65      C        0.09630    0.25000    0.84880    1.000
    C66      C        0.13080    0.25000    0.92350    1.000
    C67      C        0.04320    0.25000    0.97490    1.000
    H50      H        0.96100    0.25000    0.96330    1.000
    C68      C        0.07830    0.25000    0.04360    1.000
    H51      H        0.01910    0.25000    0.07790    1.000
    C69      C        0.20190    0.25000    0.06210    1.000
    C70      C        0.28790    0.25000    0.01020    1.000
    C71      C        0.25300    0.25000    0.94120    1.000
    H52      H        0.31210    0.25000    0.90670    1.000
    C72      C        0.22950    0.25000    0.13850    1.000
    N2       N        0.08140    0.75000    0.52880    1.000
    Eu2      Eu       0.21201    0.75000    0.20364    1.000
    O21      O        0.32040    0.75000    0.30552    1.000
    O22      O        0.51430    0.75000    0.33470    1.000
    O23      O        0.15150    0.75000    0.65380    1.000
    H53      H        0.14280    0.75000    0.69580    1.000
    O24      O        0.34860    0.75000    0.68140    1.000
    C73      C        0.40370    0.75000    0.34880    1.000
    C74      C        0.36920    0.75000    0.42350    1.000
    C75      C        0.45680    0.75000    0.47490    1.000
    H54      H        0.53900    0.75000    0.46330    1.000
    C76      C        0.42170    0.75000    0.54360    1.000
    H55      H        0.48090    0.75000    0.57790    1.000
    C77      C        0.29810    0.75000    0.56210    1.000
    C78      C        0.21210    0.75000    0.51020    1.000
    C79      C        0.24700    0.75000    0.44120    1.000
    H56      H        0.18790    0.75000    0.40670    1.000
    C80      C        0.27050    0.75000    0.63850    1.000
    N3       N        0.58140    0.75000    0.97120    1.000
    Eu3      Eu       0.71201    0.75000    0.29636    1.000
    O25      O        0.82040    0.75000    0.19448    1.000
    O26      O        0.01430    0.75000    0.16530    1.000
    O27      O        0.65150    0.75000    0.84620    1.000
    H57      H        0.64280    0.75000    0.80420    1.000
    O28      O        0.84860    0.75000    0.81860    1.000
    C81      C        0.90370    0.75000    0.15120    1.000
    C82      C        0.86920    0.75000    0.07650    1.000
    C83      C        0.95680    0.75000    0.02510    1.000
    H58      H        0.03900    0.75000    0.03670    1.000
    C84      C        0.92170    0.75000    0.95640    1.000
    H59      H        0.98090    0.75000    0.92210    1.000
    C85      C        0.79810    0.75000    0.93790    1.000
    C86      C        0.71210    0.75000    0.98980    1.000
    C87      C        0.74700    0.75000    0.05880    1.000
    H60      H        0.68790    0.75000    0.09330    1.000
    C88      C        0.77050    0.75000    0.86150    1.000
    N4       N        0.91860    0.25000    0.47120    1.000
    Eu4      Eu       0.78799    0.25000    0.79636    1.000
    O29      O        0.67960    0.25000    0.69448    1.000
    O30      O        0.48570    0.25000    0.66530    1.000
    O31      O        0.84850    0.25000    0.34620    1.000
    H61      H        0.85720    0.25000    0.30420    1.000
    O32      O        0.65140    0.25000    0.31860    1.000
    C89      C        0.59630    0.25000    0.65120    1.000
    C90      C        0.63080    0.25000    0.57650    1.000
    C91      C        0.54320    0.25000    0.52510    1.000
    H62      H        0.46100    0.25000    0.53670    1.000
    C92      C        0.57830    0.25000    0.45640    1.000
    H63      H        0.51910    0.25000    0.42210    1.000
    C93      C        0.70190    0.25000    0.43790    1.000
    C94      C        0.78790    0.25000    0.48980    1.000
    C95      C        0.75300    0.25000    0.55880    1.000
    H64      H        0.81210    0.25000    0.59330    1.000
    C96      C        0.72950    0.25000    0.36150    1.000
