# CIF file generated by openbabel 3.1.0, see https://openbabel.org
data_I
_chemical_name_common 'image0'
_cell_length_a 8.213
_cell_length_b 10.0257
_cell_length_c 15.5133
_cell_angle_alpha 80.842
_cell_angle_beta 75.671
_cell_angle_gamma 89.02
_space_group_name_H-M_alt 'P 1'
_space_group_name_Hall 'P 1'
loop_
    _symmetry_equiv_pos_as_xyz
    x,y,z
loop_
    _atom_site_label
    _atom_site_type_symbol
    _atom_site_fract_x
    _atom_site_fract_y
    _atom_site_fract_z
    _atom_site_occupancy
    Zn1      Zn       0.15924    0.26109    0.22170    1.000
    Zn2      Zn       0.75812    0.49598    0.02330    1.000
    Zn3      Zn       0.86509    0.85692    0.48061    1.000
    Zn4      Zn       0.71293    0.48402    0.53938    1.000
    P1       P        0.97416    0.26598    0.06147    1.000
    P2       P        0.37785    0.51083    0.13885    1.000
    P3       P        0.19541    0.99095    0.35647    1.000
    P4       P        0.00459    0.39984    0.39011    1.000
    P5       P        0.51975    0.73438    0.48321    1.000
    O1       O        0.82000    0.34310    0.10390    1.000
    O2       O        0.08660    0.35580    0.98095    1.000
    O3       O        0.00810    0.96330    0.37358    1.000
    O4       O        0.54530    0.56670    0.07798    1.000
    O5       O        0.23410    0.54960    0.09394    1.000
    O6       O        0.54700    0.62590    0.55765    1.000
    O7       O        0.37750    0.35900    0.16826    1.000
    O8       O        0.68610    0.80360    0.42679    1.000
    O9       O        0.84570    0.48000    0.42043    1.000
    O10      O        0.06430    0.20400    0.13135    1.000
    O11      O        0.25800    0.10840    0.28077    1.000
    O12      O        0.16130    0.49460    0.37347    1.000
    O13      O        0.42900    0.68320    0.41919    1.000
    O14      O        0.01530    0.27620    0.45864    1.000
    O15      O        0.24480    0.01220    0.44234    1.000
    O16      O        0.00110    0.36420    0.29700    1.000
    O17      O        0.91280    0.14550    0.02390    1.000
    H1       H        0.81610    0.15820    0.01930    1.000
    O18      O        0.40630    0.83850    0.53436    1.000
    H2       H        0.36240    0.88740    0.49930    1.000
    O19      O        0.35220    0.58470    0.22252    1.000
    H3       H        0.28580    0.54060    0.26560    1.000
    O20      O        0.29510    0.86710    0.32089    1.000
    H4       H        0.32680    0.82110    0.36200    1.000
    Zn5      Zn       0.84076    0.73891    0.77830    1.000
    Zn6      Zn       0.24188    0.50402    0.97670    1.000
    Zn7      Zn       0.13491    0.14308    0.51939    1.000
    Zn8      Zn       0.28707    0.51598    0.46062    1.000
    P6       P        0.02584    0.73402    0.93853    1.000
    P7       P        0.62215    0.48917    0.86115    1.000
    P8       P        0.80459    0.00905    0.64353    1.000
    P9       P        0.99541    0.60016    0.60989    1.000
    P10      P        0.48025    0.26562    0.51679    1.000
    O21      O        0.18000    0.65690    0.89610    1.000
    O22      O        0.91340    0.64420    0.01905    1.000
    O23      O        0.99190    0.03670    0.62642    1.000
    O24      O        0.45470    0.43330    0.92202    1.000
    O25      O        0.76590    0.45040    0.90606    1.000
    O26      O        0.45300    0.37410    0.44235    1.000
    O27      O        0.62250    0.64100    0.83174    1.000
    O28      O        0.31390    0.19640    0.57321    1.000
    O29      O        0.15430    0.52000    0.57957    1.000
    O30      O        0.93570    0.79600    0.86865    1.000
    O31      O        0.74200    0.89160    0.71923    1.000
    O32      O        0.83870    0.50540    0.62653    1.000
    O33      O        0.57100    0.31680    0.58081    1.000
    O34      O        0.98470    0.72380    0.54136    1.000
    O35      O        0.75520    0.98780    0.55766    1.000
    O36      O        0.99890    0.63580    0.70300    1.000
    O37      O        0.08720    0.85450    0.97610    1.000
    H5       H        0.18390    0.84180    0.98070    1.000
    O38      O        0.59370    0.16150    0.46564    1.000
    H6       H        0.63760    0.11260    0.50070    1.000
    O39      O        0.64780    0.41530    0.77748    1.000
    H7       H        0.71420    0.45940    0.73440    1.000
    O40      O        0.70490    0.13290    0.67911    1.000
    H8       H        0.67320    0.17890    0.63800    1.000
