# CIF file generated by openbabel 3.1.0, see https://openbabel.org
data_I
_chemical_name_common 'image0'
_cell_length_a 27.294
_cell_length_b 27.294
_cell_length_c 6.9565
_cell_angle_alpha 90
_cell_angle_beta 90
_cell_angle_gamma 120
_space_group_name_H-M_alt 'P 1'
_space_group_name_Hall 'P 1'
loop_
    _symmetry_equiv_pos_as_xyz
    x,y,z
loop_
    _atom_site_label
    _atom_site_type_symbol
    _atom_site_fract_x
    _atom_site_fract_y
    _atom_site_fract_z
    _atom_site_occupancy
    Er1      Er       0.74726    0.34170    0.11645    1.000
    O1       O        0.78788    0.39840    0.84140    1.000
    O2       O        0.84571    0.39787    0.17850    1.000
    O3       O        0.93860    0.44940    0.16730    1.000
    O4       O        0.75692    0.34114    0.44570    1.000
    H1       H        0.78830    0.34580    0.47930    1.000
    N1       N        0.84315    0.45870    0.61470    1.000
    N2       N        0.93850    0.48740    0.82270    1.000
    C1       C        0.83780    0.43420    0.78970    1.000
    C2       C        0.88800    0.45070    0.89690    1.000
    C3       C        0.94200    0.50950    0.65000    1.000
    H2       H        0.97710    0.53480    0.59830    1.000
    C4       C        0.89340    0.49470    0.54700    1.000
    H3       H        0.89630    0.51070    0.42660    1.000
    C5       C        0.88960    0.43050    0.09540    1.000
    Er2      Er       0.41393    0.67504    0.44978    1.000
    O5       O        0.45455    0.73173    0.17473    1.000
    O6       O        0.51238    0.73120    0.51183    1.000
    O7       O        0.60527    0.78273    0.50063    1.000
    O8       O        0.42359    0.67447    0.77903    1.000
    H4       H        0.45497    0.67913    0.81263    1.000
    N3       N        0.50982    0.79203    0.94803    1.000
    N4       N        0.60517    0.82073    0.15603    1.000
    C6       C        0.50447    0.76753    0.12303    1.000
    C7       C        0.55467    0.78403    0.23023    1.000
    C8       C        0.60867    0.84283    0.98333    1.000
    H5       H        0.64377    0.86813    0.93163    1.000
    C9       C        0.56007    0.82803    0.88033    1.000
    H6       H        0.56297    0.84403    0.75993    1.000
    C10      C        0.55627    0.76383    0.42873    1.000
    Er3      Er       0.08060    0.00837    0.78312    1.000
    O9       O        0.12121    0.06507    0.50807    1.000
    O10      O        0.17904    0.06454    0.84517    1.000
    O11      O        0.27193    0.11607    0.83397    1.000
    O12      O        0.09025    0.00781    0.11237    1.000
    H7       H        0.12163    0.01247    0.14597    1.000
    N5       N        0.17648    0.12537    0.28137    1.000
    N6       N        0.27183    0.15407    0.48937    1.000
    C11      C        0.17113    0.10087    0.45637    1.000
    C12      C        0.22133    0.11737    0.56357    1.000
    C13      C        0.27533    0.17617    0.31667    1.000
    H8       H        0.31043    0.20147    0.26497    1.000
    C14      C        0.22673    0.16137    0.21367    1.000
    H9       H        0.22963    0.17737    0.09327    1.000
    C15      C        0.22293    0.09717    0.76207    1.000
    Er4      Er       0.65830    0.40556    0.11645    1.000
    O13      O        0.60160    0.38948    0.84140    1.000
    O14      O        0.60213    0.44784    0.17850    1.000
    O15      O        0.55060    0.48920    0.16730    1.000
    O16      O        0.65886    0.41578    0.44570    1.000
    H10      H        0.65420    0.44250    0.47930    1.000
    N7       N        0.54130    0.38445    0.61470    1.000
    N8       N        0.51260    0.45110    0.82270    1.000
    C16      C        0.56580    0.40360    0.78970    1.000
    C17      C        0.54930    0.43730    0.89690    1.000
    C18      C        0.49050    0.43250    0.65000    1.000
    H11      H        0.46520    0.44230    0.59830    1.000
    C19      C        0.50530    0.39870    0.54700    1.000
    H12      H        0.48930    0.38560    0.42660    1.000
    C20      C        0.56950    0.45910    0.09540    1.000
    Er5      Er       0.32496    0.73889    0.44978    1.000
    O17      O        0.26827    0.72281    0.17473    1.000
    O18      O        0.26880    0.78117    0.51183    1.000
    O19      O        0.21727    0.82253    0.50063    1.000
    O20      O        0.32553    0.74911    0.77903    1.000
    H13      H        0.32087    0.77583    0.81263    1.000
    N9       N        0.20797    0.71778    0.94803    1.000
    N10      N        0.17927    0.78443    0.15603    1.000
    C21      C        0.23247    0.73693    0.12303    1.000
    C22      C        0.21597    0.77063    0.23023    1.000
    C23      C        0.15717    0.76583    0.98333    1.000
    H14      H        0.13187    0.77563    0.93163    1.000
    C24      C        0.17197    0.73203    0.88033    1.000
    H15      H        0.15597    0.71893    0.75993    1.000
    C25      C        0.23617    0.79243    0.42873    1.000
    Er6      Er       0.99163    0.07223    0.78312    1.000
    O21      O        0.93493    0.05615    0.50807    1.000
    O22      O        0.93546    0.11451    0.84517    1.000
    O23      O        0.88393    0.15587    0.83397    1.000
    O24      O        0.99219    0.08245    0.11237    1.000
    H16      H        0.98753    0.10917    0.14597    1.000
    N11      N        0.87463    0.05112    0.28137    1.000
    N12      N        0.84593    0.11777    0.48937    1.000
    C26      C        0.89913    0.07027    0.45637    1.000
    C27      C        0.88263    0.10397    0.56357    1.000
    C28      C        0.82383    0.09917    0.31667    1.000
    H17      H        0.79853    0.10897    0.26497    1.000
    C29      C        0.83863    0.06537    0.21367    1.000
    H18      H        0.82263    0.05227    0.09327    1.000
    C30      C        0.90283    0.12577    0.76207    1.000
    Er7      Er       0.59444    0.25274    0.11645    1.000
    O25      O        0.61052    0.21212    0.84140    1.000
    O26      O        0.55216    0.15429    0.17850    1.000
    O27      O        0.51080    0.06140    0.16730    1.000
    O28      O        0.58422    0.24308    0.44570    1.000
    H19      H        0.55750    0.21170    0.47930    1.000
    N13      N        0.61555    0.15685    0.61470    1.000
    N14      N        0.54890    0.06150    0.82270    1.000
    C31      C        0.59640    0.16220    0.78970    1.000
    C32      C        0.56270    0.11200    0.89690    1.000
    C33      C        0.56750    0.05800    0.65000    1.000
    H20      H        0.55770    0.02290    0.59830    1.000
    C34      C        0.60130    0.10660    0.54700    1.000
    H21      H        0.61440    0.10370    0.42660    1.000
    C35      C        0.54090    0.11040    0.09540    1.000
    Er8      Er       0.26111    0.58607    0.44978    1.000
    O29      O        0.27719    0.54545    0.17473    1.000
    O30      O        0.21883    0.48762    0.51183    1.000
    O31      O        0.17747    0.39473    0.50063    1.000
    O32      O        0.25089    0.57641    0.77903    1.000
    H22      H        0.22417    0.54503    0.81263    1.000
    N15      N        0.28222    0.49018    0.94803    1.000
    N16      N        0.21557    0.39483    0.15603    1.000
    C36      C        0.26307    0.49553    0.12303    1.000
    C37      C        0.22937    0.44533    0.23023    1.000
    C38      C        0.23417    0.39133    0.98333    1.000
    H23      H        0.22437    0.35623    0.93163    1.000
    C39      C        0.26797    0.43993    0.88033    1.000
    H24      H        0.28107    0.43703    0.75993    1.000
    C40      C        0.20757    0.44373    0.42873    1.000
    Er9      Er       0.92777    0.91940    0.78312    1.000
    O33      O        0.94385    0.87879    0.50807    1.000
    O34      O        0.88549    0.82096    0.84517    1.000
    O35      O        0.84413    0.72807    0.83397    1.000
    O36      O        0.91755    0.90975    0.11237    1.000
    H25      H        0.89083    0.87837    0.14597    1.000
    N17      N        0.94888    0.82352    0.28137    1.000
    N18      N        0.88223    0.72817    0.48937    1.000
    C41      C        0.92973    0.82887    0.45637    1.000
    C42      C        0.89603    0.77867    0.56357    1.000
    C43      C        0.90083    0.72467    0.31667    1.000
    H26      H        0.89103    0.68957    0.26497    1.000
    C44      C        0.93463    0.77327    0.21367    1.000
    H27      H        0.94773    0.77037    0.09327    1.000
    C45      C        0.87423    0.77707    0.76207    1.000
    Er10     Er       0.25274    0.65830    0.88355    1.000
    O37      O        0.21212    0.60160    0.15860    1.000
    O38      O        0.15429    0.60213    0.82150    1.000
    O39      O        0.06140    0.55060    0.83270    1.000
    O40      O        0.24308    0.65886    0.55430    1.000
    H28      H        0.21170    0.65420    0.52070    1.000
    N19      N        0.15685    0.54130    0.38530    1.000
    N20      N        0.06150    0.51260    0.17730    1.000
    C46      C        0.16220    0.56580    0.21030    1.000
    C47      C        0.11200    0.54930    0.10310    1.000
    C48      C        0.05800    0.49050    0.35000    1.000
    H29      H        0.02290    0.46520    0.40170    1.000
    C49      C        0.10660    0.50530    0.45300    1.000
    H30      H        0.10370    0.48930    0.57340    1.000
    C50      C        0.11040    0.56950    0.90460    1.000
    Er11     Er       0.91940    0.99163    0.21688    1.000
    O41      O        0.87879    0.93493    0.49193    1.000
    O42      O        0.82096    0.93546    0.15483    1.000
    O43      O        0.72807    0.88393    0.16603    1.000
    O44      O        0.90975    0.99219    0.88763    1.000
    H31      H        0.87837    0.98753    0.85403    1.000
    N21      N        0.82352    0.87463    0.71863    1.000
    N22      N        0.72817    0.84593    0.51063    1.000
    C51      C        0.82887    0.89913    0.54363    1.000
    C52      C        0.77867    0.88263    0.43643    1.000
    C53      C        0.72467    0.82383    0.68333    1.000
    H32      H        0.68957    0.79853    0.73503    1.000
    C54      C        0.77327    0.83863    0.78633    1.000
    H33      H        0.77037    0.82263    0.90673    1.000
    C55      C        0.77707    0.90283    0.23793    1.000
    Er12     Er       0.58607    0.32496    0.55022    1.000
    O45      O        0.54545    0.26827    0.82527    1.000
    O46      O        0.48762    0.26880    0.48817    1.000
    O47      O        0.39473    0.21727    0.49937    1.000
    O48      O        0.57641    0.32553    0.22097    1.000
    H34      H        0.54503    0.32087    0.18737    1.000
    N23      N        0.49018    0.20797    0.05197    1.000
    N24      N        0.39483    0.17927    0.84397    1.000
    C56      C        0.49553    0.23247    0.87697    1.000
    C57      C        0.44533    0.21597    0.76977    1.000
    C58      C        0.39133    0.15717    0.01667    1.000
    H35      H        0.35623    0.13187    0.06837    1.000
    C59      C        0.43993    0.17197    0.11967    1.000
    H36      H        0.43703    0.15597    0.24007    1.000
    C60      C        0.44373    0.23617    0.57127    1.000
    Er13     Er       0.34170    0.59444    0.88355    1.000
    O49      O        0.39840    0.61052    0.15860    1.000
    O50      O        0.39787    0.55216    0.82150    1.000
    O51      O        0.44940    0.51080    0.83270    1.000
    O52      O        0.34114    0.58422    0.55430    1.000
    H37      H        0.34580    0.55750    0.52070    1.000
    N25      N        0.45870    0.61555    0.38530    1.000
    N26      N        0.48740    0.54890    0.17730    1.000
    C61      C        0.43420    0.59640    0.21030    1.000
    C62      C        0.45070    0.56270    0.10310    1.000
    C63      C        0.50950    0.56750    0.35000    1.000
    H38      H        0.53480    0.55770    0.40170    1.000
    C64      C        0.49470    0.60130    0.45300    1.000
    H39      H        0.51070    0.61440    0.57340    1.000
    C65      C        0.43050    0.54090    0.90460    1.000
    Er14     Er       0.00837    0.92777    0.21688    1.000
    O53      O        0.06507    0.94385    0.49193    1.000
    O54      O        0.06454    0.88549    0.15483    1.000
    O55      O        0.11607    0.84413    0.16603    1.000
    O56      O        0.00781    0.91755    0.88763    1.000
    H40      H        0.01247    0.89083    0.85403    1.000
    N27      N        0.12537    0.94888    0.71863    1.000
    N28      N        0.15407    0.88223    0.51063    1.000
    C66      C        0.10087    0.92973    0.54363    1.000
    C67      C        0.11737    0.89603    0.43643    1.000
    C68      C        0.17617    0.90083    0.68333    1.000
    H41      H        0.20147    0.89103    0.73503    1.000
    C69      C        0.16137    0.93463    0.78633    1.000
    H42      H        0.17737    0.94773    0.90673    1.000
    C70      C        0.09717    0.87423    0.23793    1.000
    Er15     Er       0.67504    0.26111    0.55022    1.000
    O57      O        0.73173    0.27719    0.82527    1.000
    O58      O        0.73120    0.21883    0.48817    1.000
    O59      O        0.78273    0.17747    0.49937    1.000
    O60      O        0.67447    0.25089    0.22097    1.000
    H43      H        0.67913    0.22417    0.18737    1.000
    N29      N        0.79203    0.28222    0.05197    1.000
    N30      N        0.82073    0.21557    0.84397    1.000
    C71      C        0.76753    0.26307    0.87697    1.000
    C72      C        0.78403    0.22937    0.76977    1.000
    C73      C        0.84283    0.23417    0.01667    1.000
    H44      H        0.86813    0.22437    0.06837    1.000
    C74      C        0.82803    0.26797    0.11967    1.000
    H45      H        0.84403    0.28107    0.24007    1.000
    C75      C        0.76383    0.20757    0.57127    1.000
    Er16     Er       0.40556    0.74726    0.88355    1.000
    O61      O        0.38948    0.78788    0.15860    1.000
    O62      O        0.44784    0.84571    0.82150    1.000
    O63      O        0.48920    0.93860    0.83270    1.000
    O64      O        0.41578    0.75692    0.55430    1.000
    H46      H        0.44250    0.78830    0.52070    1.000
    N31      N        0.38445    0.84315    0.38530    1.000
    N32      N        0.45110    0.93850    0.17730    1.000
    C76      C        0.40360    0.83780    0.21030    1.000
    C77      C        0.43730    0.88800    0.10310    1.000
    C78      C        0.43250    0.94200    0.35000    1.000
    H47      H        0.44230    0.97710    0.40170    1.000
    C79      C        0.39870    0.89340    0.45300    1.000
    H48      H        0.38560    0.89630    0.57340    1.000
    C80      C        0.45910    0.88960    0.90460    1.000
    Er17     Er       0.07223    0.08060    0.21688    1.000
    O65      O        0.05615    0.12121    0.49193    1.000
    O66      O        0.11451    0.17904    0.15483    1.000
    O67      O        0.15587    0.27193    0.16603    1.000
    O68      O        0.08245    0.09025    0.88763    1.000
    H49      H        0.10917    0.12163    0.85403    1.000
    N33      N        0.05112    0.17648    0.71863    1.000
    N34      N        0.11777    0.27183    0.51063    1.000
    C81      C        0.07027    0.17113    0.54363    1.000
    C82      C        0.10397    0.22133    0.43643    1.000
    C83      C        0.09917    0.27533    0.68333    1.000
    H50      H        0.10897    0.31043    0.73503    1.000
    C84      C        0.06537    0.22673    0.78633    1.000
    H51      H        0.05227    0.22963    0.90673    1.000
    C85      C        0.12577    0.22293    0.23793    1.000
    Er18     Er       0.73889    0.41393    0.55022    1.000
    O69      O        0.72281    0.45455    0.82527    1.000
    O70      O        0.78117    0.51238    0.48817    1.000
    O71      O        0.82253    0.60527    0.49937    1.000
    O72      O        0.74911    0.42359    0.22097    1.000
    H52      H        0.77583    0.45497    0.18737    1.000
    N35      N        0.71778    0.50982    0.05197    1.000
    N36      N        0.78443    0.60517    0.84397    1.000
    C86      C        0.73693    0.50447    0.87697    1.000
    C87      C        0.77063    0.55467    0.76977    1.000
    C88      C        0.76583    0.60867    0.01667    1.000
    H53      H        0.77563    0.64377    0.06837    1.000
    C89      C        0.73203    0.56007    0.11967    1.000
    H54      H        0.71893    0.56297    0.24007    1.000
    C90      C        0.79243    0.55627    0.57127    1.000
    Cu1      Cu       0.00000    0.50000    0.00000    1.000
    Cu2      Cu       0.66667    0.83333    0.33333    1.000
    Cu3      Cu       0.33333    0.16667    0.66667    1.000
    Cu4      Cu       0.50000    0.50000    0.00000    1.000
    Cu5      Cu       0.16667    0.83333    0.33333    1.000
    Cu6      Cu       0.83333    0.16667    0.66667    1.000
    Cu7      Cu       0.50000    0.00000    0.00000    1.000
    Cu8      Cu       0.16667    0.33333    0.33333    1.000
    Cu9      Cu       0.83333    0.66667    0.66667    1.000
    O73      O        0.66667    0.33333    0.33333    1.000
    O74      O        0.33333    0.66667    0.66667    1.000
    O75      O        0.00000    0.00000    0.00000    1.000
    O76      O        0.66667    0.33333    0.01590    1.000
    H55      H        0.66667    0.33333    0.89370    1.000
    O77      O        0.33333    0.66667    0.34923    1.000
    H56      H        0.33333    0.66667    0.22703    1.000
    O78      O        0.00000    0.00000    0.68257    1.000
    H57      H        0.00000    0.00000    0.56037    1.000
    O79      O        0.33333    0.66667    0.98410    1.000
    H58      H        0.33333    0.66667    0.10630    1.000
    O80      O        0.00000    0.00000    0.31743    1.000
    H59      H        0.00000    0.00000    0.43963    1.000
    O81      O        0.66667    0.33333    0.65077    1.000
    H60      H        0.66667    0.33333    0.77297    1.000
