# CIF file generated by openbabel 3.1.0, see https://openbabel.org
data_I
_chemical_name_common 'KIPJOK_clean'
_cell_length_a 7.3654
_cell_length_b 23.4808
_cell_length_c 29.0284
_cell_angle_alpha 90
_cell_angle_beta 90
_cell_angle_gamma 90.969
_space_group_name_H-M_alt 'P 1'
_space_group_name_Hall 'P 1'
loop_
    _symmetry_equiv_pos_as_xyz
    x,y,z
loop_
    _atom_site_label
    _atom_site_type_symbol
    _atom_site_fract_x
    _atom_site_fract_y
    _atom_site_fract_z
    _atom_site_occupancy
    Nd1      Nd       0.78954    0.67208    0.29729    1.000
    Nd2      Nd       0.28631    0.74295    0.26218    1.000
    Nd3      Nd       0.21046    0.82792    0.79729    1.000
    Nd4      Nd       0.71369    0.75705    0.76218    1.000
    Nd5      Nd       0.21046    0.32792    0.70271    1.000
    Nd6      Nd       0.71369    0.25705    0.73782    1.000
    Nd7      Nd       0.78954    0.17208    0.20271    1.000
    Nd8      Nd       0.28631    0.24295    0.23782    1.000
    H1       H        0.92890    0.62020    0.57660    1.000
    H2       H        0.89680    0.34360    0.29460    1.000
    H3       H        0.58880    0.74140    0.44830    1.000
    H4       H        0.97740    0.77590    0.43170    1.000
    H5       H        0.12910    0.80500    0.49800    1.000
    H6       H        0.23150    0.71270    0.55020    1.000
    H7       H        0.24100    0.84770    0.66600    1.000
    H8       H        0.41790    0.86100    0.60070    1.000
    H9       H        0.96550    0.53780    0.17780    1.000
    H10      H        0.58890    0.55640    0.17260    1.000
    H11      H        0.44080    0.50350    0.11790    1.000
    H12      H        0.11710    0.42090    0.18300    1.000
    H13      H        0.56890    0.36510    0.11860    1.000
    H14      H        0.74930    0.43260    0.08170    1.000
    H15      H        0.07110    0.87980    0.07660    1.000
    H16      H        0.10320    0.15640    0.79460    1.000
    H17      H        0.41120    0.75860    0.94830    1.000
    H18      H        0.02260    0.72410    0.93170    1.000
    H19      H        0.87090    0.69500    0.99800    1.000
    H20      H        0.76850    0.78730    0.05020    1.000
    H21      H        0.75900    0.65230    0.16600    1.000
    H22      H        0.58210    0.63900    0.10070    1.000
    H23      H        0.03450    0.96220    0.67780    1.000
    H24      H        0.41110    0.94360    0.67260    1.000
    H25      H        0.55920    0.99650    0.61790    1.000
    H26      H        0.88290    0.07910    0.68300    1.000
    H27      H        0.43110    0.13490    0.61860    1.000
    H28      H        0.25070    0.06740    0.58170    1.000
    H29      H        0.07110    0.37980    0.42340    1.000
    H30      H        0.10320    0.65640    0.70540    1.000
    H31      H        0.41120    0.25860    0.55170    1.000
    H32      H        0.02260    0.22410    0.56830    1.000
    H33      H        0.87090    0.19500    0.50200    1.000
    H34      H        0.76850    0.28730    0.44980    1.000
    H35      H        0.75900    0.15230    0.33400    1.000
    H36      H        0.58210    0.13900    0.39930    1.000
    H37      H        0.03450    0.46220    0.82220    1.000
    H38      H        0.41110    0.44360    0.82740    1.000
    H39      H        0.55920    0.49650    0.88210    1.000
    H40      H        0.88290    0.57910    0.81700    1.000
    H41      H        0.43110    0.63490    0.88140    1.000
    H42      H        0.25070    0.56740    0.91830    1.000
    H43      H        0.92890    0.12020    0.92340    1.000
    H44      H        0.89680    0.84360    0.20540    1.000
    H45      H        0.58880    0.24140    0.05170    1.000
    H46      H        0.97740    0.27590    0.06830    1.000
    H47      H        0.12910    0.30500    0.00200    1.000
    H48      H        0.23150    0.21270    0.94980    1.000
    H49      H        0.24100    0.34770    0.83400    1.000
    H50      H        0.41790    0.36100    0.89930    1.000
    H51      H        0.96550    0.03780    0.32220    1.000
    H52      H        0.58890    0.05640    0.32740    1.000
    H53      H        0.44080    0.00350    0.38210    1.000
    H54      H        0.11710    0.92090    0.31700    1.000
    H55      H        0.56890    0.86510    0.38140    1.000
    H56      H        0.74930    0.93260    0.41830    1.000
    C1       C        0.46830    0.79330    0.52620    1.000
    C2       C        0.37470    0.77290    0.48130    1.000
    C3       C        0.46500    0.74770    0.44530    1.000
    C4       C        0.37960    0.73130    0.40490    1.000
    C5       C        0.19130    0.73970    0.40020    1.000
    C6       C        0.10010    0.76820    0.43510    1.000
    C7       C        0.19100    0.78530    0.47530    1.000
    C8       C        0.48580    0.70530    0.36740    1.000
    C9       C        0.08160    0.71480    0.36130    1.000
    C10      C        0.34570    0.78820    0.56850    1.000
    C11      C        0.23430    0.73980    0.57360    1.000
    C12      C        0.12690    0.73090    0.61270    1.000
    C13      C        0.12850    0.77230    0.64720    1.000
    C14      C        0.23850    0.82050    0.64270    1.000
    C15      C        0.34560    0.82830    0.60340    1.000
    C16      C        0.01790    0.67750    0.61430    1.000
    C17      C        0.00810    0.77000    0.68880    1.000
    C18      C        0.53270    0.85590    0.51800    1.000
    C19      C        0.63520    0.75670    0.53780    1.000
    C20      C        0.07020    0.48070    0.10620    1.000
    C21      C        0.18590    0.51530    0.14180    1.000
    C22      C        0.09090    0.54270    0.17610    1.000
    C23      C        0.17950    0.57770    0.20830    1.000
    C24      C        0.37060    0.58310    0.20790    1.000
    C25      C        0.46280    0.55390    0.17350    1.000
    C26      C        0.37450    0.52150    0.14080    1.000
    C27      C        0.06660    0.60860    0.24230    1.000
    C28      C        0.47770    0.61860    0.24170    1.000
    C29      C        0.94880    0.43530    0.13010    1.000
    C30      C        0.00530    0.41040    0.17040    1.000
    C31      C        0.89770    0.36980    0.19270    1.000
    C32      C        0.72910    0.35350    0.17340    1.000
    C33      C        0.67790    0.37680    0.13200    1.000
    C34      C        0.78550    0.41740    0.10980    1.000
    C35      C        0.95830    0.34900    0.23860    1.000
    C36      C        0.60310    0.31010    0.19450    1.000
    C37      C        0.18910    0.44920    0.07130    1.000
    C38      C        0.95620    0.52470    0.07940    1.000
    C39      C        0.53170    0.70670    0.02620    1.000
    C40      C        0.62530    0.72710    0.98130    1.000
    C41      C        0.53500    0.75230    0.94530    1.000
    C42      C        0.62040    0.76870    0.90490    1.000
    C43      C        0.80870    0.76030    0.90020    1.000
    C44      C        0.89990    0.73180    0.93510    1.000
    C45      C        0.80900    0.71470    0.97530    1.000
    C46      C        0.51420    0.79470    0.86740    1.000
    C47      C        0.91840    0.78520    0.86130    1.000
    C48      C        0.65430    0.71180    0.06850    1.000
    C49      C        0.76570    0.76020    0.07360    1.000
    C50      C        0.87310    0.76910    0.11270    1.000
    C51      C        0.87150    0.72770    0.14720    1.000
    C52      C        0.76150    0.67950    0.14270    1.000
    C53      C        0.65440    0.67170    0.10340    1.000
    C54      C        0.98210    0.82250    0.11430    1.000
    C55      C        0.99190    0.73000    0.18880    1.000
    C56      C        0.46730    0.64410    0.01800    1.000
    C57      C        0.36480    0.74330    0.03780    1.000
    C58      C        0.92980    0.01930    0.60620    1.000
    C59      C        0.81410    0.98470    0.64180    1.000
    C60      C        0.90910    0.95730    0.67610    1.000
    C61      C        0.82050    0.92230    0.70830    1.000
    C62      C        0.62940    0.91690    0.70790    1.000
    C63      C        0.53720    0.94610    0.67350    1.000
    C64      C        0.62550    0.97850    0.64080    1.000
    C65      C        0.93340    0.89140    0.74230    1.000
    C66      C        0.52230    0.88140    0.74170    1.000
    C67      C        0.05120    0.06470    0.63010    1.000
    C68      C        0.99470    0.08960    0.67040    1.000
    C69      C        0.10230    0.13020    0.69270    1.000
    C70      C        0.27090    0.14650    0.67340    1.000
    C71      C        0.32210    0.12320    0.63200    1.000
    C72      C        0.21450    0.08260    0.60980    1.000
    C73      C        0.04170    0.15100    0.73860    1.000
    C74      C        0.39690    0.18990    0.69450    1.000
    C75      C        0.81090    0.05080    0.57130    1.000
    C76      C        0.04380    0.97530    0.57940    1.000
    C77      C        0.53170    0.20670    0.47380    1.000
    C78      C        0.62530    0.22710    0.51870    1.000
    C79      C        0.53500    0.25230    0.55470    1.000
    C80      C        0.62040    0.26870    0.59510    1.000
    C81      C        0.80870    0.26030    0.59980    1.000
    C82      C        0.89990    0.23180    0.56490    1.000
    C83      C        0.80900    0.21470    0.52470    1.000
    C84      C        0.51420    0.29470    0.63260    1.000
    C85      C        0.91840    0.28520    0.63870    1.000
    C86      C        0.65430    0.21180    0.43150    1.000
    C87      C        0.76570    0.26020    0.42640    1.000
    C88      C        0.87310    0.26910    0.38730    1.000
    C89      C        0.87150    0.22770    0.35280    1.000
    C90      C        0.76150    0.17950    0.35730    1.000
    C91      C        0.65440    0.17170    0.39660    1.000
    C92      C        0.98210    0.32250    0.38570    1.000
    C93      C        0.99190    0.23000    0.31120    1.000
    C94      C        0.46730    0.14410    0.48200    1.000
    C95      C        0.36480    0.24330    0.46220    1.000
    C96      C        0.92980    0.51930    0.89380    1.000
    C97      C        0.81410    0.48470    0.85820    1.000
    C98      C        0.90910    0.45730    0.82390    1.000
    C99      C        0.82050    0.42230    0.79170    1.000
    C100     C        0.62940    0.41690    0.79210    1.000
    C101     C        0.53720    0.44610    0.82650    1.000
    C102     C        0.62550    0.47850    0.85920    1.000
    C103     C        0.93340    0.39140    0.75770    1.000
    C104     C        0.52230    0.38140    0.75830    1.000
    C105     C        0.05120    0.56470    0.86990    1.000
    C106     C        0.99470    0.58960    0.82960    1.000
    C107     C        0.10230    0.63020    0.80730    1.000
    C108     C        0.27090    0.64650    0.82660    1.000
    C109     C        0.32210    0.62320    0.86800    1.000
    C110     C        0.21450    0.58260    0.89020    1.000
    C111     C        0.04170    0.65100    0.76140    1.000
    C112     C        0.39690    0.68990    0.80550    1.000
    C113     C        0.81090    0.55080    0.92870    1.000
    C114     C        0.04380    0.47530    0.92060    1.000
    C115     C        0.46830    0.29330    0.97380    1.000
    C116     C        0.37470    0.27290    0.01870    1.000
    C117     C        0.46500    0.24770    0.05470    1.000
    C118     C        0.37960    0.23130    0.09510    1.000
    C119     C        0.19130    0.23970    0.09980    1.000
    C120     C        0.10010    0.26820    0.06490    1.000
    C121     C        0.19100    0.28530    0.02470    1.000
    C122     C        0.48580    0.20530    0.13260    1.000
    C123     C        0.08160    0.21480    0.13870    1.000
    C124     C        0.34570    0.28820    0.93150    1.000
    C125     C        0.23430    0.23980    0.92640    1.000
    C126     C        0.12690    0.23090    0.88730    1.000
    C127     C        0.12850    0.27230    0.85280    1.000
    C128     C        0.23850    0.32050    0.85730    1.000
    C129     C        0.34560    0.32830    0.89660    1.000
    C130     C        0.01790    0.17750    0.88570    1.000
    C131     C        0.00810    0.27000    0.81120    1.000
    C132     C        0.53270    0.35590    0.98200    1.000
    C133     C        0.63520    0.25670    0.96220    1.000
    C134     C        0.07020    0.98070    0.39380    1.000
    C135     C        0.18590    0.01530    0.35820    1.000
    C136     C        0.09090    0.04270    0.32390    1.000
    C137     C        0.17950    0.07770    0.29170    1.000
    C138     C        0.37060    0.08310    0.29210    1.000
    C139     C        0.46280    0.05390    0.32650    1.000
    C140     C        0.37450    0.02150    0.35920    1.000
    C141     C        0.06660    0.10860    0.25770    1.000
    C142     C        0.47770    0.11860    0.25830    1.000
    C143     C        0.94880    0.93530    0.36990    1.000
    C144     C        0.00530    0.91040    0.32960    1.000
    C145     C        0.89770    0.86980    0.30730    1.000
    C146     C        0.72910    0.85350    0.32660    1.000
    C147     C        0.67790    0.87680    0.36800    1.000
    C148     C        0.78550    0.91740    0.39020    1.000
    C149     C        0.95830    0.84900    0.26140    1.000
    C150     C        0.60310    0.81010    0.30550    1.000
    C151     C        0.18910    0.94920    0.42870    1.000
    C152     C        0.95620    0.02470    0.42060    1.000
    O1       O        0.65110    0.69880    0.37310    1.000
    O2       O        0.40640    0.69230    0.33017    1.000
    O3       O        0.05620    0.74480    0.32433    1.000
    O4       O        0.00680    0.66820    0.36650    1.000
    O5       O        0.99360    0.65110    0.65230    1.000
    O6       O        0.95930    0.65740    0.57700    1.000
    O7       O        0.07930    0.77740    0.72819    1.000
    O8       O        0.84030    0.76390    0.68440    1.000
    O9       O        0.13930    0.64410    0.26987    1.000
    O10      O        0.89510    0.60070    0.24160    1.000
    O11      O        0.50400    0.67160    0.23488    1.000
    O12      O        0.55260    0.59310    0.27470    1.000
    O13      O        0.11390    0.33270    0.24501    1.000
    O14      O        0.84040    0.35330    0.27169    1.000
    O15      O        0.66460    0.26560    0.21240    1.000
    O16      O        0.43660    0.31940    0.19310    1.000
    O17      O        0.34890    0.80120    0.87310    1.000
    O18      O        0.59360    0.80770    0.83017    1.000
    O19      O        0.94380    0.75520    0.82433    1.000
    O20      O        0.99320    0.83180    0.86650    1.000
    O21      O        0.00640    0.84890    0.15230    1.000
    O22      O        0.04070    0.84260    0.07700    1.000
    O23      O        0.92070    0.72260    0.22819    1.000
    O24      O        0.15970    0.73610    0.18440    1.000
    O25      O        0.86070    0.85590    0.76987    1.000
    O26      O        0.10490    0.89930    0.74160    1.000
    O27      O        0.49600    0.82840    0.73488    1.000
    O28      O        0.44740    0.90690    0.77470    1.000
    O29      O        0.88610    0.16730    0.74501    1.000
    O30      O        0.15960    0.14670    0.77169    1.000
    O31      O        0.33540    0.23440    0.71240    1.000
    O32      O        0.56340    0.18060    0.69310    1.000
    O33      O        0.34890    0.30120    0.62690    1.000
    O34      O        0.59360    0.30770    0.66983    1.000
    O35      O        0.94380    0.25520    0.67567    1.000
    O36      O        0.99320    0.33180    0.63350    1.000
    O37      O        0.00640    0.34890    0.34770    1.000
    O38      O        0.04070    0.34260    0.42300    1.000
    O39      O        0.92070    0.22260    0.27181    1.000
    O40      O        0.15970    0.23610    0.31560    1.000
    O41      O        0.86070    0.35590    0.73013    1.000
    O42      O        0.10490    0.39930    0.75840    1.000
    O43      O        0.49600    0.32840    0.76512    1.000
    O44      O        0.44740    0.40690    0.72530    1.000
    O45      O        0.88610    0.66730    0.75499    1.000
    O46      O        0.15960    0.64670    0.72831    1.000
    O47      O        0.33540    0.73440    0.78760    1.000
    O48      O        0.56340    0.68060    0.80690    1.000
    O49      O        0.65110    0.19880    0.12690    1.000
    O50      O        0.40640    0.19230    0.16983    1.000
    O51      O        0.05620    0.24480    0.17567    1.000
    O52      O        0.00680    0.16820    0.13350    1.000
    O53      O        0.99360    0.15110    0.84770    1.000
    O54      O        0.95930    0.15740    0.92300    1.000
    O55      O        0.07930    0.27740    0.77181    1.000
    O56      O        0.84030    0.26390    0.81560    1.000
    O57      O        0.13930    0.14410    0.23013    1.000
    O58      O        0.89510    0.10070    0.25840    1.000
    O59      O        0.50400    0.17160    0.26512    1.000
    O60      O        0.55260    0.09310    0.22530    1.000
    O61      O        0.11390    0.83270    0.25499    1.000
    O62      O        0.84040    0.85330    0.22831    1.000
    O63      O        0.66460    0.76560    0.28760    1.000
    O64      O        0.43660    0.81940    0.30690    1.000
    F1       F        0.39500    0.89090    0.51732    1.000
    F2       F        0.65060    0.87380    0.54957    1.000
    F3       F        0.62090    0.86060    0.47753    1.000
    F4       F        0.77820    0.76530    0.50879    1.000
    F5       F        0.59190    0.70070    0.53427    1.000
    F6       F        0.69670    0.76580    0.57988    1.000
    F7       F        0.29240    0.48460    0.04593    1.000
    F8       F        0.30220    0.41390    0.09270    1.000
    F9       F        0.09190    0.41730    0.04221    1.000
    F10      F        0.05210    0.57120    0.06839    1.000
    F11      F        0.88470    0.50470    0.04002    1.000
    F12      F        0.81540    0.54220    0.10478    1.000
    F13      F        0.60500    0.60910    0.01732    1.000
    F14      F        0.34940    0.62620    0.04957    1.000
    F15      F        0.37910    0.63940    0.97753    1.000
    F16      F        0.22180    0.73470    0.00879    1.000
    F17      F        0.40810    0.79930    0.03427    1.000
    F18      F        0.30330    0.73420    0.07988    1.000
    F19      F        0.70760    0.01540    0.54593    1.000
    F20      F        0.69780    0.08610    0.59270    1.000
    F21      F        0.90810    0.08270    0.54221    1.000
    F22      F        0.94790    0.92880    0.56839    1.000
    F23      F        0.11530    0.99530    0.54002    1.000
    F24      F        0.18460    0.95780    0.60478    1.000
    F25      F        0.60500    0.10910    0.48268    1.000
    F26      F        0.34940    0.12620    0.45043    1.000
    F27      F        0.37910    0.13940    0.52247    1.000
    F28      F        0.22180    0.23470    0.49121    1.000
    F29      F        0.40810    0.29930    0.46573    1.000
    F30      F        0.30330    0.23420    0.42012    1.000
    F31      F        0.70760    0.51540    0.95407    1.000
    F32      F        0.69780    0.58610    0.90730    1.000
    F33      F        0.90810    0.58270    0.95779    1.000
    F34      F        0.94790    0.42880    0.93161    1.000
    F35      F        0.11530    0.49530    0.95998    1.000
    F36      F        0.18460    0.45780    0.89522    1.000
    F37      F        0.39500    0.39090    0.98268    1.000
    F38      F        0.65060    0.37380    0.95043    1.000
    F39      F        0.62090    0.36060    0.02247    1.000
    F40      F        0.77820    0.26530    0.99121    1.000
    F41      F        0.59190    0.20070    0.96573    1.000
    F42      F        0.69670    0.26580    0.92012    1.000
    F43      F        0.29240    0.98460    0.45407    1.000
    F44      F        0.30220    0.91390    0.40730    1.000
    F45      F        0.09190    0.91730    0.45779    1.000
    F46      F        0.05210    0.07120    0.43161    1.000
    F47      F        0.88470    0.00470    0.45998    1.000
    F48      F        0.81540    0.04220    0.39522    1.000
