# CIF file generated by openbabel 3.1.0, see https://openbabel.org
data_I
_chemical_name_common 'image0'
_cell_length_a 15.1973
_cell_length_b 15.1973
_cell_length_c 22.1529
_cell_angle_alpha 90
_cell_angle_beta 90
_cell_angle_gamma 90
_space_group_name_H-M_alt 'P 1'
_space_group_name_Hall 'P 1'
loop_
    _symmetry_equiv_pos_as_xyz
    x,y,z
loop_
    _atom_site_label
    _atom_site_type_symbol
    _atom_site_fract_x
    _atom_site_fract_y
    _atom_site_fract_z
    _atom_site_occupancy
    Ni1      Ni       0.96096    0.01341    0.05785    1.000
    N1       N        0.88000    0.96580    0.28460    1.000
    C1       C        0.83430    0.03250    0.30640    1.000
    H1       H        0.81830    0.02880    0.34680    1.000
    N2       N        0.80790    0.10600    0.27630    1.000
    C2       C        0.83680    0.10700    0.21790    1.000
    C3       C        0.88340    0.03730    0.19000    1.000
    C4       C        0.90480    0.96560    0.22550    1.000
    N3       N        0.95010    0.89630    0.20460    1.000
    H2       H        0.96280    0.85340    0.22830    1.000
    H3       H        0.96640    0.89480    0.16740    1.000
    N4       N        0.90110    0.06390    0.13200    1.000
    C5       C        0.86680    0.14300    0.12880    1.000
    H4       H        0.86920    0.17640    0.09370    1.000
    N5       N        0.82830    0.17290    0.17910    1.000
    O1       O        0.92350    0.10980    0.99990    1.000
    O2       O        0.98320    0.09820    0.91080    1.000
    C6       C        0.93300    0.13340    0.94690    1.000
    C7       C        0.87660    0.20730    0.92340    1.000
    H5       H        0.91330    0.25050    0.90320    1.000
    H6       H        0.84700    0.23610    0.95670    1.000
    C8       C        0.80390    0.16890    0.87600    1.000
    H7       H        0.82870    0.12520    0.84900    1.000
    H8       H        0.77600    0.21520    0.85280    1.000
    Ni2      Ni       0.46096    0.51341    0.55785    1.000
    N6       N        0.38000    0.46580    0.78460    1.000
    C9       C        0.33430    0.53250    0.80640    1.000
    H9       H        0.31830    0.52880    0.84680    1.000
    N7       N        0.30790    0.60600    0.77630    1.000
    C10      C        0.33680    0.60700    0.71790    1.000
    C11      C        0.38340    0.53730    0.69000    1.000
    C12      C        0.40480    0.46560    0.72550    1.000
    N8       N        0.45010    0.39630    0.70460    1.000
    H10      H        0.46280    0.35340    0.72830    1.000
    H11      H        0.46640    0.39480    0.66740    1.000
    N9       N        0.40110    0.56390    0.63200    1.000
    C13      C        0.36680    0.64300    0.62880    1.000
    H12      H        0.36920    0.67640    0.59370    1.000
    N10      N        0.32830    0.67290    0.67910    1.000
    O3       O        0.42350    0.60980    0.49990    1.000
    O4       O        0.48320    0.59820    0.41080    1.000
    C14      C        0.43300    0.63340    0.44690    1.000
    C15      C        0.37660    0.70730    0.42340    1.000
    H13      H        0.41330    0.75050    0.40320    1.000
    H14      H        0.34700    0.73610    0.45670    1.000
    C16      C        0.30390    0.66890    0.37600    1.000
    H15      H        0.32870    0.62520    0.34900    1.000
    H16      H        0.27600    0.71520    0.35280    1.000
    Ni3      Ni       0.53904    0.98659    0.55785    1.000
    N11      N        0.62000    0.03420    0.78460    1.000
    C17      C        0.66570    0.96750    0.80640    1.000
    H17      H        0.68170    0.97120    0.84680    1.000
    N12      N        0.69210    0.89400    0.77630    1.000
    C18      C        0.66320    0.89300    0.71790    1.000
    C19      C        0.61660    0.96270    0.69000    1.000
    C20      C        0.59520    0.03440    0.72550    1.000
    N13      N        0.54990    0.10370    0.70460    1.000
    H18      H        0.53720    0.14660    0.72830    1.000
    H19      H        0.53360    0.10520    0.66740    1.000
    N14      N        0.59890    0.93610    0.63200    1.000
    C21      C        0.63320    0.85700    0.62880    1.000
    H20      H        0.63080    0.82360    0.59370    1.000
    N15      N        0.67170    0.82710    0.67910    1.000
    O5       O        0.57650    0.89020    0.49990    1.000
    O6       O        0.51680    0.90180    0.41080    1.000
    C22      C        0.56700    0.86660    0.44690    1.000
    C23      C        0.62340    0.79270    0.42340    1.000
    H21      H        0.58670    0.74950    0.40320    1.000
    H22      H        0.65300    0.76390    0.45670    1.000
    C24      C        0.69610    0.83110    0.37600    1.000
    H23      H        0.67130    0.87480    0.34900    1.000
    H24      H        0.72400    0.78480    0.35280    1.000
    Ni4      Ni       0.03904    0.48659    0.05785    1.000
    N16      N        0.12000    0.53420    0.28460    1.000
    C25      C        0.16570    0.46750    0.30640    1.000
    H25      H        0.18170    0.47120    0.34680    1.000
    N17      N        0.19210    0.39400    0.27630    1.000
    C26      C        0.16320    0.39300    0.21790    1.000
    C27      C        0.11660    0.46270    0.19000    1.000
    C28      C        0.09520    0.53440    0.22550    1.000
    N18      N        0.04990    0.60370    0.20460    1.000
    H26      H        0.03720    0.64660    0.22830    1.000
    H27      H        0.03360    0.60520    0.16740    1.000
    N19      N        0.09890    0.43610    0.13200    1.000
    C29      C        0.13320    0.35700    0.12880    1.000
    H28      H        0.13080    0.32360    0.09370    1.000
    N20      N        0.17170    0.32710    0.17910    1.000
    O7       O        0.07650    0.39020    0.99990    1.000
    O8       O        0.01680    0.40180    0.91080    1.000
    C30      C        0.06700    0.36660    0.94690    1.000
    C31      C        0.12340    0.29270    0.92340    1.000
    H29      H        0.08670    0.24950    0.90320    1.000
    H30      H        0.15300    0.26390    0.95670    1.000
    C32      C        0.19610    0.33110    0.87600    1.000
    H31      H        0.17130    0.37480    0.84900    1.000
    H32      H        0.22400    0.28480    0.85280    1.000
    Ni5      Ni       0.73659    0.21096    0.30785    1.000
    N21      N        0.78420    0.13000    0.53460    1.000
    C33      C        0.71750    0.08430    0.55640    1.000
    H33      H        0.72120    0.06830    0.59680    1.000
    N22      N        0.64400    0.05790    0.52630    1.000
    C34      C        0.64300    0.08680    0.46790    1.000
    C35      C        0.71270    0.13340    0.44000    1.000
    C36      C        0.78440    0.15480    0.47550    1.000
    N23      N        0.85370    0.20010    0.45460    1.000
    H34      H        0.89660    0.21280    0.47830    1.000
    H35      H        0.85520    0.21640    0.41740    1.000
    N24      N        0.68610    0.15110    0.38200    1.000
    C37      C        0.60700    0.11680    0.37880    1.000
    H36      H        0.57360    0.11920    0.34370    1.000
    N25      N        0.57710    0.07830    0.42910    1.000
    O9       O        0.64020    0.17350    0.24990    1.000
    O10      O        0.65180    0.23320    0.16080    1.000
    C38      C        0.61660    0.18300    0.19690    1.000
    C39      C        0.54270    0.12660    0.17340    1.000
    H37      H        0.49950    0.16330    0.15320    1.000
    H38      H        0.51390    0.09700    0.20670    1.000
    C40      C        0.58110    0.05390    0.12600    1.000
    H39      H        0.62480    0.07870    0.09900    1.000
    H40      H        0.53480    0.02600    0.10280    1.000
    Ni6      Ni       0.23659    0.71096    0.80785    1.000
    N26      N        0.28420    0.63000    0.03460    1.000
    C41      C        0.21750    0.58430    0.05640    1.000
    H41      H        0.22120    0.56830    0.09680    1.000
    N27      N        0.14400    0.55790    0.02630    1.000
    C42      C        0.14300    0.58680    0.96790    1.000
    C43      C        0.21270    0.63340    0.94000    1.000
    C44      C        0.28440    0.65480    0.97550    1.000
    N28      N        0.35370    0.70010    0.95460    1.000
    H42      H        0.39660    0.71280    0.97830    1.000
    H43      H        0.35520    0.71640    0.91740    1.000
    N29      N        0.18610    0.65110    0.88200    1.000
    C45      C        0.10700    0.61680    0.87880    1.000
    H44      H        0.07360    0.61920    0.84370    1.000
    N30      N        0.07710    0.57830    0.92910    1.000
    O11      O        0.14020    0.67350    0.74990    1.000
    O12      O        0.15180    0.73320    0.66080    1.000
    C46      C        0.11660    0.68300    0.69690    1.000
    C47      C        0.04270    0.62660    0.67340    1.000
    H45      H        0.99950    0.66330    0.65320    1.000
    H46      H        0.01390    0.59700    0.70670    1.000
    C48      C        0.08110    0.55390    0.62600    1.000
    H47      H        0.12480    0.57870    0.59900    1.000
    H48      H        0.03480    0.52600    0.60280    1.000
    Ni7      Ni       0.76341    0.78904    0.80785    1.000
    N31      N        0.71580    0.87000    0.03460    1.000
    C49      C        0.78250    0.91570    0.05640    1.000
    H49      H        0.77880    0.93170    0.09680    1.000
    N32      N        0.85600    0.94210    0.02630    1.000
    C50      C        0.85700    0.91320    0.96790    1.000
    C51      C        0.78730    0.86660    0.94000    1.000
    C52      C        0.71560    0.84520    0.97550    1.000
    N33      N        0.64630    0.79990    0.95460    1.000
    H50      H        0.60340    0.78720    0.97830    1.000
    H51      H        0.64480    0.78360    0.91740    1.000
    N34      N        0.81390    0.84890    0.88200    1.000
    C53      C        0.89300    0.88320    0.87880    1.000
    H52      H        0.92640    0.88080    0.84370    1.000
    N35      N        0.92290    0.92170    0.92910    1.000
    O13      O        0.85980    0.82650    0.74990    1.000
    O14      O        0.84820    0.76680    0.66080    1.000
    C54      C        0.88340    0.81700    0.69690    1.000
    C55      C        0.95730    0.87340    0.67340    1.000
    H53      H        0.00050    0.83670    0.65320    1.000
    H54      H        0.98610    0.90300    0.70670    1.000
    C56      C        0.91890    0.94610    0.62600    1.000
    H55      H        0.87520    0.92130    0.59900    1.000
    H56      H        0.96520    0.97400    0.60280    1.000
    Ni8      Ni       0.26341    0.28904    0.30785    1.000
    N36      N        0.21580    0.37000    0.53460    1.000
    C57      C        0.28250    0.41570    0.55640    1.000
    H57      H        0.27880    0.43170    0.59680    1.000
    N37      N        0.35600    0.44210    0.52630    1.000
    C58      C        0.35700    0.41320    0.46790    1.000
    C59      C        0.28730    0.36660    0.44000    1.000
    C60      C        0.21560    0.34520    0.47550    1.000
    N38      N        0.14630    0.29990    0.45460    1.000
    H58      H        0.10340    0.28720    0.47830    1.000
    H59      H        0.14480    0.28360    0.41740    1.000
    N39      N        0.31390    0.34890    0.38200    1.000
    C61      C        0.39300    0.38320    0.37880    1.000
    H60      H        0.42640    0.38080    0.34370    1.000
    N40      N        0.42290    0.42170    0.42910    1.000
    O15      O        0.35980    0.32650    0.24990    1.000
    O16      O        0.34820    0.26680    0.16080    1.000
    C62      C        0.38340    0.31700    0.19690    1.000
    C63      C        0.45730    0.37340    0.17340    1.000
    H61      H        0.50050    0.33670    0.15320    1.000
    H62      H        0.48610    0.40300    0.20670    1.000
    C64      C        0.41890    0.44610    0.12600    1.000
    H63      H        0.37520    0.42130    0.09900    1.000
    H64      H        0.46520    0.47400    0.10280    1.000
    Ni9      Ni       0.03904    0.98659    0.94215    1.000
    N41      N        0.12000    0.03420    0.71540    1.000
    C65      C        0.16570    0.96750    0.69360    1.000
    H65      H        0.18170    0.97120    0.65320    1.000
    N42      N        0.19210    0.89400    0.72370    1.000
    C66      C        0.16320    0.89300    0.78210    1.000
    C67      C        0.11660    0.96270    0.81000    1.000
    C68      C        0.09520    0.03440    0.77450    1.000
    N43      N        0.04990    0.10370    0.79540    1.000
    H66      H        0.03720    0.14660    0.77170    1.000
    H67      H        0.03360    0.10520    0.83260    1.000
    N44      N        0.09890    0.93610    0.86800    1.000
    C69      C        0.13320    0.85700    0.87120    1.000
    H68      H        0.13080    0.82360    0.90630    1.000
    N45      N        0.17170    0.82710    0.82090    1.000
    O17      O        0.07650    0.89020    0.00010    1.000
    O18      O        0.01680    0.90180    0.08920    1.000
    C70      C        0.06700    0.86660    0.05310    1.000
    C71      C        0.12340    0.79270    0.07660    1.000
    H69      H        0.08670    0.74950    0.09680    1.000
    H70      H        0.15300    0.76390    0.04330    1.000
    C72      C        0.19610    0.83110    0.12400    1.000
    H71      H        0.17130    0.87480    0.15100    1.000
    H72      H        0.22400    0.78480    0.14720    1.000
    Ni10     Ni       0.53904    0.48659    0.44215    1.000
    N46      N        0.62000    0.53420    0.21540    1.000
    C73      C        0.66570    0.46750    0.19360    1.000
    H73      H        0.68170    0.47120    0.15320    1.000
    N47      N        0.69210    0.39400    0.22370    1.000
    C74      C        0.66320    0.39300    0.28210    1.000
    C75      C        0.61660    0.46270    0.31000    1.000
    C76      C        0.59520    0.53440    0.27450    1.000
    N48      N        0.54990    0.60370    0.29540    1.000
    H74      H        0.53720    0.64660    0.27170    1.000
    H75      H        0.53360    0.60520    0.33260    1.000
    N49      N        0.59890    0.43610    0.36800    1.000
    C77      C        0.63320    0.35700    0.37120    1.000
    H76      H        0.63080    0.32360    0.40630    1.000
    N50      N        0.67170    0.32710    0.32090    1.000
    O19      O        0.57650    0.39020    0.50010    1.000
    O20      O        0.51680    0.40180    0.58920    1.000
    C78      C        0.56700    0.36660    0.55310    1.000
    C79      C        0.62340    0.29270    0.57660    1.000
    H77      H        0.58670    0.24950    0.59680    1.000
    H78      H        0.65300    0.26390    0.54330    1.000
    C80      C        0.69610    0.33110    0.62400    1.000
    H79      H        0.67130    0.37480    0.65100    1.000
    H80      H        0.72400    0.28480    0.64720    1.000
    Ni11     Ni       0.46096    0.01341    0.44215    1.000
    N51      N        0.38000    0.96580    0.21540    1.000
    C81      C        0.33430    0.03250    0.19360    1.000
    H81      H        0.31830    0.02880    0.15320    1.000
    N52      N        0.30790    0.10600    0.22370    1.000
    C82      C        0.33680    0.10700    0.28210    1.000
    C83      C        0.38340    0.03730    0.31000    1.000
    C84      C        0.40480    0.96560    0.27450    1.000
    N53      N        0.45010    0.89630    0.29540    1.000
    H82      H        0.46280    0.85340    0.27170    1.000
    H83      H        0.46640    0.89480    0.33260    1.000
    N54      N        0.40110    0.06390    0.36800    1.000
    C85      C        0.36680    0.14300    0.37120    1.000
    H84      H        0.36920    0.17640    0.40630    1.000
    N55      N        0.32830    0.17290    0.32090    1.000
    O21      O        0.42350    0.10980    0.50010    1.000
    O22      O        0.48320    0.09820    0.58920    1.000
    C86      C        0.43300    0.13340    0.55310    1.000
    C87      C        0.37660    0.20730    0.57660    1.000
    H85      H        0.41330    0.25050    0.59680    1.000
    H86      H        0.34700    0.23610    0.54330    1.000
    C88      C        0.30390    0.16890    0.62400    1.000
    H87      H        0.32870    0.12520    0.65100    1.000
    H88      H        0.27600    0.21520    0.64720    1.000
    Ni12     Ni       0.96096    0.51341    0.94215    1.000
    N56      N        0.88000    0.46580    0.71540    1.000
    C89      C        0.83430    0.53250    0.69360    1.000
    H89      H        0.81830    0.52880    0.65320    1.000
    N57      N        0.80790    0.60600    0.72370    1.000
    C90      C        0.83680    0.60700    0.78210    1.000
    C91      C        0.88340    0.53730    0.81000    1.000
    C92      C        0.90480    0.46560    0.77450    1.000
    N58      N        0.95010    0.39630    0.79540    1.000
    H90      H        0.96280    0.35340    0.77170    1.000
    H91      H        0.96640    0.39480    0.83260    1.000
    N59      N        0.90110    0.56390    0.86800    1.000
    C93      C        0.86680    0.64300    0.87120    1.000
    H92      H        0.86920    0.67640    0.90630    1.000
    N60      N        0.82830    0.67290    0.82090    1.000
    O23      O        0.92350    0.60980    0.00010    1.000
    O24      O        0.98320    0.59820    0.08920    1.000
    C94      C        0.93300    0.63340    0.05310    1.000
    C95      C        0.87660    0.70730    0.07660    1.000
    H93      H        0.91330    0.75050    0.09680    1.000
    H94      H        0.84700    0.73610    0.04330    1.000
    C96      C        0.80390    0.66890    0.12400    1.000
    H95      H        0.82870    0.62520    0.15100    1.000
    H96      H        0.77600    0.71520    0.14720    1.000
    Ni13     Ni       0.26341    0.78904    0.69215    1.000
    N61      N        0.21580    0.87000    0.46540    1.000
    C97      C        0.28250    0.91570    0.44360    1.000
    H97      H        0.27880    0.93170    0.40320    1.000
    N62      N        0.35600    0.94210    0.47370    1.000
    C98      C        0.35700    0.91320    0.53210    1.000
    C99      C        0.28730    0.86660    0.56000    1.000
    C100     C        0.21560    0.84520    0.52450    1.000
    N63      N        0.14630    0.79990    0.54540    1.000
    H98      H        0.10340    0.78720    0.52170    1.000
    H99      H        0.14480    0.78360    0.58260    1.000
    N64      N        0.31390    0.84890    0.61800    1.000
    C101     C        0.39300    0.88320    0.62120    1.000
    H100     H        0.42640    0.88080    0.65630    1.000
    N65      N        0.42290    0.92170    0.57090    1.000
    O25      O        0.35980    0.82650    0.75010    1.000
    O26      O        0.34820    0.76680    0.83920    1.000
    C102     C        0.38340    0.81700    0.80310    1.000
    C103     C        0.45730    0.87340    0.82660    1.000
    H101     H        0.50050    0.83670    0.84680    1.000
    H102     H        0.48610    0.90300    0.79330    1.000
    C104     C        0.41890    0.94610    0.87400    1.000
    H103     H        0.37520    0.92130    0.90100    1.000
    H104     H        0.46520    0.97400    0.89720    1.000
    Ni14     Ni       0.76341    0.28904    0.19215    1.000
    N66      N        0.71580    0.37000    0.96540    1.000
    C105     C        0.78250    0.41570    0.94360    1.000
    H105     H        0.77880    0.43170    0.90320    1.000
    N67      N        0.85600    0.44210    0.97370    1.000
    C106     C        0.85700    0.41320    0.03210    1.000
    C107     C        0.78730    0.36660    0.06000    1.000
    C108     C        0.71560    0.34520    0.02450    1.000
    N68      N        0.64630    0.29990    0.04540    1.000
    H106     H        0.60340    0.28720    0.02170    1.000
    H107     H        0.64480    0.28360    0.08260    1.000
    N69      N        0.81390    0.34890    0.11800    1.000
    C109     C        0.89300    0.38320    0.12120    1.000
    H108     H        0.92640    0.38080    0.15630    1.000
    N70      N        0.92290    0.42170    0.07090    1.000
    O27      O        0.85980    0.32650    0.25010    1.000
    O28      O        0.84820    0.26680    0.33920    1.000
    C110     C        0.88340    0.31700    0.30310    1.000
    C111     C        0.95730    0.37340    0.32660    1.000
    H109     H        0.00050    0.33670    0.34680    1.000
    H110     H        0.98610    0.40300    0.29330    1.000
    C112     C        0.91890    0.44610    0.37400    1.000
    H111     H        0.87520    0.42130    0.40100    1.000
    H112     H        0.96520    0.47400    0.39720    1.000
    Ni15     Ni       0.23659    0.21096    0.19215    1.000
    N71      N        0.28420    0.13000    0.96540    1.000
    C113     C        0.21750    0.08430    0.94360    1.000
    H113     H        0.22120    0.06830    0.90320    1.000
    N72      N        0.14400    0.05790    0.97370    1.000
    C114     C        0.14300    0.08680    0.03210    1.000
    C115     C        0.21270    0.13340    0.06000    1.000
    C116     C        0.28440    0.15480    0.02450    1.000
    N73      N        0.35370    0.20010    0.04540    1.000
    H114     H        0.39660    0.21280    0.02170    1.000
    H115     H        0.35520    0.21640    0.08260    1.000
    N74      N        0.18610    0.15110    0.11800    1.000
    C117     C        0.10700    0.11680    0.12120    1.000
    H116     H        0.07360    0.11920    0.15630    1.000
    N75      N        0.07710    0.07830    0.07090    1.000
    O29      O        0.14020    0.17350    0.25010    1.000
    O30      O        0.15180    0.23320    0.33920    1.000
    C118     C        0.11660    0.18300    0.30310    1.000
    C119     C        0.04270    0.12660    0.32660    1.000
    H117     H        0.99950    0.16330    0.34680    1.000
    H118     H        0.01390    0.09700    0.29330    1.000
    C120     C        0.08110    0.05390    0.37400    1.000
    H119     H        0.12480    0.07870    0.40100    1.000
    H120     H        0.03480    0.02600    0.39720    1.000
    Ni16     Ni       0.73659    0.71096    0.69215    1.000
    N76      N        0.78420    0.63000    0.46540    1.000
    C121     C        0.71750    0.58430    0.44360    1.000
    H121     H        0.72120    0.56830    0.40320    1.000
    N77      N        0.64400    0.55790    0.47370    1.000
    C122     C        0.64300    0.58680    0.53210    1.000
    C123     C        0.71270    0.63340    0.56000    1.000
    C124     C        0.78440    0.65480    0.52450    1.000
    N78      N        0.85370    0.70010    0.54540    1.000
    H122     H        0.89660    0.71280    0.52170    1.000
    H123     H        0.85520    0.71640    0.58260    1.000
    N79      N        0.68610    0.65110    0.61800    1.000
    C125     C        0.60700    0.61680    0.62120    1.000
    H124     H        0.57360    0.61920    0.65630    1.000
    N80      N        0.57710    0.57830    0.57090    1.000
    O31      O        0.64020    0.67350    0.75010    1.000
    O32      O        0.65180    0.73320    0.83920    1.000
    C126     C        0.61660    0.68300    0.80310    1.000
    C127     C        0.54270    0.62660    0.82660    1.000
    H125     H        0.49950    0.66330    0.84680    1.000
    H126     H        0.51390    0.59700    0.79330    1.000
    C128     C        0.58110    0.55390    0.87400    1.000
    H127     H        0.62480    0.57870    0.90100    1.000
    H128     H        0.53480    0.52600    0.89720    1.000
