# CIF file generated by openbabel 3.1.0, see https://openbabel.org
data_I
_chemical_name_common 'HEBTAL_clean'
_cell_length_a 7.3352
_cell_length_b 11.32
_cell_length_c 17.676
_cell_angle_alpha 90
_cell_angle_beta 90.12
_cell_angle_gamma 90
_space_group_name_H-M_alt 'P 1'
_space_group_name_Hall 'P 1'
loop_
    _symmetry_equiv_pos_as_xyz
    x,y,z
loop_
    _atom_site_label
    _atom_site_type_symbol
    _atom_site_fract_x
    _atom_site_fract_y
    _atom_site_fract_z
    _atom_site_occupancy
    Co1      Co       0.00000    0.50000    0.00000    1.000
    Co2      Co       0.00000    0.00000    0.50000    1.000
    Co3      Co       0.50000    0.50000    0.00000    1.000
    Co4      Co       0.50000    0.00000    0.50000    1.000
    H1       H        0.70940    0.47530    0.73290    1.000
    H2       H        0.92480    0.69950    0.58230    1.000
    H3       H        0.96100    0.49220    0.80850    1.000
    H4       H        0.69200    0.58320    0.61770    1.000
    H5       H        0.50600    0.79510    0.67710    1.000
    H6       H        0.52100    0.69010    0.79200    1.000
    H7       H        0.29060    0.97530    0.76710    1.000
    H8       H        0.07520    0.19950    0.91770    1.000
    H9       H        0.03900    0.99220    0.69150    1.000
    H10      H        0.30800    0.08320    0.88230    1.000
    H11      H        0.49400    0.29510    0.82290    1.000
    H12      H        0.47900    0.19010    0.70800    1.000
    H13      H        0.29060    0.52470    0.26710    1.000
    H14      H        0.07520    0.30050    0.41770    1.000
    H15      H        0.03900    0.50780    0.19150    1.000
    H16      H        0.30800    0.41680    0.38230    1.000
    H17      H        0.49400    0.20490    0.32290    1.000
    H18      H        0.47900    0.30990    0.20800    1.000
    H19      H        0.70940    0.02470    0.23290    1.000
    H20      H        0.92480    0.80050    0.08230    1.000
    H21      H        0.96100    0.00780    0.30850    1.000
    H22      H        0.69200    0.91680    0.11770    1.000
    H23      H        0.50600    0.70490    0.17710    1.000
    H24      H        0.52100    0.80990    0.29200    1.000
    C1       C        0.26333    0.62197    0.78913    1.000
    C2       C        0.40060    0.74585    0.69327    1.000
    C3       C        0.09259    0.67339    0.67346    1.000
    C4       C        0.24434    0.74477    0.65072    1.000
    C5       C        0.10196    0.61031    0.74355    1.000
    C6       C        0.27349    0.57457    0.86923    1.000
    C7       C        0.23394    0.82853    0.58414    1.000
    C8       C        0.40930    0.68417    0.76254    1.000
    C9       C        0.80490    0.52432    0.71842    1.000
    C10      C        0.93360    0.65904    0.62796    1.000
    C11      C        0.95490    0.53500    0.76365    1.000
    C12      C        0.79430    0.58736    0.64985    1.000
    C13      C        0.73667    0.12197    0.71087    1.000
    C14      C        0.59940    0.24585    0.80673    1.000
    C15      C        0.90741    0.17339    0.82654    1.000
    C16      C        0.75566    0.24477    0.84928    1.000
    C17      C        0.89804    0.11031    0.75645    1.000
    C18      C        0.72651    0.07457    0.63077    1.000
    C19      C        0.76606    0.32853    0.91586    1.000
    C20      C        0.59070    0.18417    0.73746    1.000
    C21      C        0.19510    0.02432    0.78158    1.000
    C22      C        0.06640    0.15904    0.87204    1.000
    C23      C        0.04510    0.03500    0.73635    1.000
    C24      C        0.20570    0.08736    0.85015    1.000
    C25      C        0.73667    0.37803    0.21087    1.000
    C26      C        0.59940    0.25415    0.30673    1.000
    C27      C        0.90741    0.32661    0.32654    1.000
    C28      C        0.75566    0.25523    0.34928    1.000
    C29      C        0.89804    0.38969    0.25645    1.000
    C30      C        0.72651    0.42543    0.13077    1.000
    C31      C        0.76606    0.17147    0.41586    1.000
    C32      C        0.59070    0.31583    0.23746    1.000
    C33      C        0.19510    0.47568    0.28158    1.000
    C34      C        0.06640    0.34096    0.37204    1.000
    C35      C        0.04510    0.46500    0.23635    1.000
    C36      C        0.20570    0.41264    0.35015    1.000
    C37      C        0.26333    0.87803    0.28913    1.000
    C38      C        0.40060    0.75415    0.19327    1.000
    C39      C        0.09259    0.82661    0.17346    1.000
    C40      C        0.24434    0.75523    0.15072    1.000
    C41      C        0.10196    0.88969    0.24355    1.000
    C42      C        0.27349    0.92543    0.36923    1.000
    C43      C        0.23394    0.67147    0.08414    1.000
    C44      C        0.40930    0.81583    0.26254    1.000
    C45      C        0.80490    0.97568    0.21842    1.000
    C46      C        0.93360    0.84096    0.12796    1.000
    C47      C        0.95490    0.96500    0.26365    1.000
    C48      C        0.79430    0.91264    0.14985    1.000
    O1       O        0.13034    0.58055    0.90803    1.000
    O2       O        0.37780    0.84750    0.54748    1.000
    O3       O        0.08230    0.87601    0.57290    1.000
    O4       O        0.42577    0.53864    0.89176    1.000
    O5       O        0.86966    0.08055    0.59197    1.000
    O6       O        0.62220    0.34750    0.95252    1.000
    O7       O        0.91770    0.37601    0.92710    1.000
    O8       O        0.57423    0.03864    0.60824    1.000
    O9       O        0.86966    0.41945    0.09197    1.000
    O10      O        0.62220    0.15250    0.45252    1.000
    O11      O        0.91770    0.12399    0.42710    1.000
    O12      O        0.57423    0.46136    0.10824    1.000
    O13      O        0.13034    0.91945    0.40803    1.000
    O14      O        0.37780    0.65250    0.04748    1.000
    O15      O        0.08230    0.62399    0.07290    1.000
    O16      O        0.42577    0.96136    0.39176    1.000
