# CIF file generated by openbabel 3.1.0, see https://openbabel.org
data_I
_chemical_name_common 'image0'
_cell_length_a 13.5396
_cell_length_b 30.438
_cell_length_c 15.7217
_cell_angle_alpha 90
_cell_angle_beta 110.535
_cell_angle_gamma 90
_space_group_name_H-M_alt 'P 1'
_space_group_name_Hall 'P 1'
loop_
    _symmetry_equiv_pos_as_xyz
    x,y,z
loop_
    _atom_site_label
    _atom_site_type_symbol
    _atom_site_fract_x
    _atom_site_fract_y
    _atom_site_fract_z
    _atom_site_occupancy
    Zn1      Zn       0.47570    0.05073    0.85948    1.000
    Zn2      Zn       0.33333    0.08294    0.29189    1.000
    Zn3      Zn       0.61372    0.02324    0.43044    1.000
    S1       S        0.22681    0.80975    0.72576    1.000
    S2       S        0.21429    0.21569    0.51121    1.000
    P1       P        0.49392    0.95180    0.78262    1.000
    P2       P        0.44306    0.06752    0.49939    1.000
    N1       N        0.77100    0.02820    0.50270    1.000
    N2       N        0.31500    0.04646    0.76460    1.000
    N3       N        0.63500    0.05574    0.95390    1.000
    N4       N        0.17620    0.08028    0.21950    1.000
    N5       N        0.46030    0.12298    0.86020    1.000
    N6       N        0.37210    0.35208    0.80290    1.000
    C1       C        0.35020    0.83428    0.78730    1.000
    C2       C        0.42540    0.81118    0.85450    1.000
    H1       H        0.41080    0.78300    0.86950    1.000
    C3       C        0.52260    0.83002    0.89970    1.000
    H2       H        0.57380    0.81440    0.94480    1.000
    C4       C        0.54390    0.87244    0.87780    1.000
    H3       H        0.61000    0.88470    0.90740    1.000
    C5       C        0.46710    0.89660    0.81200    1.000
    C6       C        0.36990    0.87719    0.76650    1.000
    H4       H        0.31790    0.89290    0.72210    1.000
    C7       C        0.43580    0.12280    0.53850    1.000
    C8       C        0.52650    0.14479    0.59210    1.000
    H5       H        0.59180    0.13110    0.60680    1.000
    C9       C        0.52040    0.18683    0.62390    1.000
    H6       H        0.58100    0.20080    0.66150    1.000
    C10      C        0.42410    0.20782    0.59960    1.000
    H7       H        0.42000    0.23620    0.62000    1.000
    C11      C        0.33610    0.18722    0.54630    1.000
    C12      C        0.34020    0.14436    0.51520    1.000
    H8       H        0.27860    0.13050    0.47890    1.000
    C13      C        0.81840    0.06727    0.52100    1.000
    H9       H        0.77790    0.09230    0.49990    1.000
    C14      C        0.92490    0.07233    0.56990    1.000
    H10      H        0.95520    0.10020    0.57990    1.000
    C15      C        0.98580    0.03536    0.60360    1.000
    C16      C        0.93710    0.99480    0.58420    1.000
    H11      H        0.97590    0.96920    0.60450    1.000
    C17      C        0.83060    0.99245    0.53460    1.000
    H12      H        0.79880    0.96490    0.52280    1.000
    C18      C        0.10060    0.03878    0.65730    1.000
    C19      C        0.16310    0.07254    0.64270    1.000
    H13      H        0.13410    0.09320    0.59730    1.000
    C20      C        0.26910    0.07464    0.69700    1.000
    H14      H        0.31020    0.09680    0.68570    1.000
    C21      C        0.25500    0.01370    0.77740    1.000
    H15      H        0.28620    0.99320    0.82270    1.000
    C22      C        0.14890    0.00910    0.72600    1.000
    H16      H        0.11020    0.98610    0.73770    1.000
    C23      C        0.71050    0.03177    0.93930    1.000
    H17      H        0.69100    0.01110    0.89280    1.000
    C24      C        0.81630    0.03650    0.99050    1.000
    H18      H        0.86610    0.01920    0.97800    1.000
    C25      C        0.84830    0.06695    0.06050    1.000
    C26      C        0.76950    0.09116    0.07760    1.000
    H19      H        0.78680    0.11150    0.12480    1.000
    C27      C        0.66540    0.08440    0.02310    1.000
    H20      H        0.61360    0.10060    0.03520    1.000
    C28      C        0.96210    0.07285    0.11560    1.000
    C29      C        0.03950    0.06368    0.07860    1.000
    H21      H        0.02060    0.05500    0.01830    1.000
    C30      C        0.14450    0.06759    0.13230    1.000
    H22      H        0.19540    0.06110    0.10700    1.000
    C31      C        0.10210    0.09052    0.25430    1.000
    H23      H        0.12320    0.10010    0.31430    1.000
    C32      C        0.99500    0.08747    0.20470    1.000
    H24      H        0.94580    0.09520    0.23100    1.000
    C33      C        0.53590    0.14997    0.85350    1.000
    H25      H        0.59870    0.13750    0.85380    1.000
    C34      C        0.52590    0.19526    0.84620    1.000
    H26      H        0.58100    0.21260    0.84290    1.000
    C35      C        0.43160    0.21422    0.84380    1.000
    C36      C        0.35310    0.18670    0.85210    1.000
    H27      H        0.28920    0.19830    0.85130    1.000
    C37      C        0.37160    0.14214    0.86150    1.000
    H28      H        0.31970    0.12430    0.86930    1.000
    C38      C        0.41240    0.26211    0.82930    1.000
    C39      C        0.49130    0.29315    0.86720    1.000
    H29      H        0.55910    0.28420    0.90210    1.000
    C40      C        0.46780    0.33727    0.85230    1.000
    H30      H        0.52130    0.35760    0.87800    1.000
    C41      C        0.29660    0.32229    0.76580    1.000
    H31      H        0.22970    0.33220    0.73090    1.000
    C42      C        0.31280    0.27757    0.77670    1.000
    H32      H        0.25800    0.25800    0.74930    1.000
    O1       O        0.40760    0.96162    0.69240    1.000
    O2       O        0.60476    0.95115    0.77744    1.000
    O3       O        0.49013    0.98241    0.85827    1.000
    O4       O        0.16490    0.81440    0.78020    1.000
    O5       O        0.18620    0.83140    0.64210    1.000
    O6       O        0.24980    0.76530    0.71300    1.000
    O7       O        0.54980    0.06418    0.48920    1.000
    O8       O        0.35120    0.06022    0.41082    1.000
    O9       O        0.43110    0.03731    0.57253    1.000
    O10      O        0.17160    0.20540    0.57380    1.000
    O11      O        0.15150    0.19820    0.42950    1.000
    O12      O        0.22900    0.25610    0.55100    1.000
    O13      O        0.24020    0.25980    0.47880    1.000
    Zn4      Zn       0.52430    0.55073    0.64052    1.000
    Zn5      Zn       0.66667    0.58294    0.20811    1.000
    Zn6      Zn       0.38628    0.52324    0.06956    1.000
    S3       S        0.77319    0.30975    0.77424    1.000
    S4       S        0.78571    0.71569    0.98879    1.000
    P3       P        0.50608    0.45180    0.71738    1.000
    P4       P        0.55694    0.56752    0.00061    1.000
    N7       N        0.22900    0.52820    0.99730    1.000
    N8       N        0.68500    0.54646    0.73540    1.000
    N9       N        0.36500    0.55574    0.54610    1.000
    N10      N        0.82380    0.58028    0.28050    1.000
    N11      N        0.53970    0.62298    0.63980    1.000
    N12      N        0.62790    0.85208    0.69710    1.000
    C43      C        0.64980    0.33428    0.71270    1.000
    C44      C        0.57460    0.31118    0.64550    1.000
    H33      H        0.58920    0.28300    0.63050    1.000
    C45      C        0.47740    0.33002    0.60030    1.000
    H34      H        0.42620    0.31440    0.55520    1.000
    C46      C        0.45610    0.37244    0.62220    1.000
    H35      H        0.39000    0.38470    0.59260    1.000
    C47      C        0.53290    0.39660    0.68800    1.000
    C48      C        0.63010    0.37719    0.73350    1.000
    H36      H        0.68210    0.39290    0.77790    1.000
    C49      C        0.56420    0.62280    0.96150    1.000
    C50      C        0.47350    0.64479    0.90790    1.000
    H37      H        0.40820    0.63110    0.89320    1.000
    C51      C        0.47960    0.68683    0.87610    1.000
    H38      H        0.41900    0.70080    0.83850    1.000
    C52      C        0.57590    0.70782    0.90040    1.000
    H39      H        0.58000    0.73620    0.88000    1.000
    C53      C        0.66390    0.68722    0.95370    1.000
    C54      C        0.65980    0.64436    0.98480    1.000
    H40      H        0.72140    0.63050    0.02110    1.000
    C55      C        0.18160    0.56727    0.97900    1.000
    H41      H        0.22210    0.59230    0.00010    1.000
    C56      C        0.07510    0.57233    0.93010    1.000
    H42      H        0.04480    0.60020    0.92010    1.000
    C57      C        0.01420    0.53536    0.89640    1.000
    C58      C        0.06290    0.49480    0.91580    1.000
    H43      H        0.02410    0.46920    0.89550    1.000
    C59      C        0.16940    0.49245    0.96540    1.000
    H44      H        0.20120    0.46490    0.97720    1.000
    C60      C        0.89940    0.53878    0.84270    1.000
    C61      C        0.83690    0.57254    0.85730    1.000
    H45      H        0.86590    0.59320    0.90270    1.000
    C62      C        0.73090    0.57464    0.80300    1.000
    H46      H        0.68980    0.59680    0.81430    1.000
    C63      C        0.74500    0.51370    0.72260    1.000
    H47      H        0.71380    0.49320    0.67730    1.000
    C64      C        0.85110    0.50910    0.77400    1.000
    H48      H        0.88980    0.48610    0.76230    1.000
    C65      C        0.28950    0.53177    0.56070    1.000
    H49      H        0.30900    0.51110    0.60720    1.000
    C66      C        0.18370    0.53650    0.50950    1.000
    H50      H        0.13390    0.51920    0.52200    1.000
    C67      C        0.15170    0.56695    0.43950    1.000
    C68      C        0.23050    0.59116    0.42240    1.000
    H51      H        0.21320    0.61150    0.37520    1.000
    C69      C        0.33460    0.58440    0.47690    1.000
    H52      H        0.38640    0.60060    0.46480    1.000
    C70      C        0.03790    0.57285    0.38440    1.000
    C71      C        0.96050    0.56368    0.42140    1.000
    H53      H        0.97940    0.55500    0.48170    1.000
    C72      C        0.85550    0.56759    0.36770    1.000
    H54      H        0.80460    0.56110    0.39300    1.000
    C73      C        0.89790    0.59052    0.24570    1.000
    H55      H        0.87680    0.60010    0.18570    1.000
    C74      C        0.00500    0.58747    0.29530    1.000
    H56      H        0.05420    0.59520    0.26900    1.000
    C75      C        0.46410    0.64997    0.64650    1.000
    H57      H        0.40130    0.63750    0.64620    1.000
    C76      C        0.47410    0.69526    0.65380    1.000
    H58      H        0.41900    0.71260    0.65710    1.000
    C77      C        0.56840    0.71422    0.65620    1.000
    C78      C        0.64690    0.68670    0.64790    1.000
    H59      H        0.71080    0.69830    0.64870    1.000
    C79      C        0.62840    0.64214    0.63850    1.000
    H60      H        0.68030    0.62430    0.63070    1.000
    C80      C        0.58760    0.76211    0.67070    1.000
    C81      C        0.50870    0.79315    0.63280    1.000
    H61      H        0.44090    0.78420    0.59790    1.000
    C82      C        0.53220    0.83727    0.64770    1.000
    H62      H        0.47870    0.85760    0.62200    1.000
    C83      C        0.70340    0.82229    0.73420    1.000
    H63      H        0.77030    0.83220    0.76910    1.000
    C84      C        0.68720    0.77757    0.72330    1.000
    H64      H        0.74200    0.75800    0.75070    1.000
    O14      O        0.59240    0.46162    0.80760    1.000
    O15      O        0.39524    0.45115    0.72256    1.000
    O16      O        0.50987    0.48241    0.64173    1.000
    O17      O        0.83510    0.31440    0.71980    1.000
    O18      O        0.81380    0.33140    0.85790    1.000
    O19      O        0.75020    0.26530    0.78700    1.000
    O20      O        0.45020    0.56418    0.01080    1.000
    O21      O        0.64880    0.56022    0.08918    1.000
    O22      O        0.56890    0.53731    0.92747    1.000
    O23      O        0.82840    0.70540    0.92620    1.000
    O24      O        0.84850    0.69820    0.07050    1.000
    O25      O        0.77100    0.75610    0.94900    1.000
    O26      O        0.75980    0.75980    0.02120    1.000
    Zn7      Zn       0.52430    0.94927    0.14052    1.000
    Zn8      Zn       0.66667    0.91706    0.70811    1.000
    Zn9      Zn       0.38628    0.97676    0.56956    1.000
    S5       S        0.77319    0.19025    0.27424    1.000
    S6       S        0.78571    0.78431    0.48879    1.000
    P5       P        0.50608    0.04820    0.21738    1.000
    P6       P        0.55694    0.93248    0.50061    1.000
    N13      N        0.22900    0.97180    0.49730    1.000
    N14      N        0.68500    0.95354    0.23540    1.000
    N15      N        0.36500    0.94426    0.04610    1.000
    N16      N        0.82380    0.91972    0.78050    1.000
    N17      N        0.53970    0.87702    0.13980    1.000
    N18      N        0.62790    0.64792    0.19710    1.000
    C85      C        0.64980    0.16572    0.21270    1.000
    C86      C        0.57460    0.18882    0.14550    1.000
    H65      H        0.58920    0.21700    0.13050    1.000
    C87      C        0.47740    0.16998    0.10030    1.000
    H66      H        0.42620    0.18560    0.05520    1.000
    C88      C        0.45610    0.12756    0.12220    1.000
    H67      H        0.39000    0.11530    0.09260    1.000
    C89      C        0.53290    0.10340    0.18800    1.000
    C90      C        0.63010    0.12281    0.23350    1.000
    H68      H        0.68210    0.10710    0.27790    1.000
    C91      C        0.56420    0.87720    0.46150    1.000
    C92      C        0.47350    0.85521    0.40790    1.000
    H69      H        0.40820    0.86890    0.39320    1.000
    C93      C        0.47960    0.81317    0.37610    1.000
    H70      H        0.41900    0.79920    0.33850    1.000
    C94      C        0.57590    0.79218    0.40040    1.000
    H71      H        0.58000    0.76380    0.38000    1.000
    C95      C        0.66390    0.81278    0.45370    1.000
    C96      C        0.65980    0.85564    0.48480    1.000
    H72      H        0.72140    0.86950    0.52110    1.000
    C97      C        0.18160    0.93273    0.47900    1.000
    H73      H        0.22210    0.90770    0.50010    1.000
    C98      C        0.07510    0.92767    0.43010    1.000
    H74      H        0.04480    0.89980    0.42010    1.000
    C99      C        0.01420    0.96464    0.39640    1.000
    C100     C        0.06290    0.00520    0.41580    1.000
    H75      H        0.02410    0.03080    0.39550    1.000
    C101     C        0.16940    0.00755    0.46540    1.000
    H76      H        0.20120    0.03510    0.47720    1.000
    C102     C        0.89940    0.96122    0.34270    1.000
    C103     C        0.83690    0.92746    0.35730    1.000
    H77      H        0.86590    0.90680    0.40270    1.000
    C104     C        0.73090    0.92536    0.30300    1.000
    H78      H        0.68980    0.90320    0.31430    1.000
    C105     C        0.74500    0.98630    0.22260    1.000
    H79      H        0.71380    0.00680    0.17730    1.000
    C106     C        0.85110    0.99090    0.27400    1.000
    H80      H        0.88980    0.01390    0.26230    1.000
    C107     C        0.28950    0.96823    0.06070    1.000
    H81      H        0.30900    0.98890    0.10720    1.000
    C108     C        0.18370    0.96350    0.00950    1.000
    H82      H        0.13390    0.98080    0.02200    1.000
    C109     C        0.15170    0.93305    0.93950    1.000
    C110     C        0.23050    0.90884    0.92240    1.000
    H83      H        0.21320    0.88850    0.87520    1.000
    C111     C        0.33460    0.91560    0.97690    1.000
    H84      H        0.38640    0.89940    0.96480    1.000
    C112     C        0.03790    0.92715    0.88440    1.000
    C113     C        0.96050    0.93632    0.92140    1.000
    H85      H        0.97940    0.94500    0.98170    1.000
    C114     C        0.85550    0.93241    0.86770    1.000
    H86      H        0.80460    0.93890    0.89300    1.000
    C115     C        0.89790    0.90948    0.74570    1.000
    H87      H        0.87680    0.89990    0.68570    1.000
    C116     C        0.00500    0.91253    0.79530    1.000
    H88      H        0.05420    0.90480    0.76900    1.000
    C117     C        0.46410    0.85003    0.14650    1.000
    H89      H        0.40130    0.86250    0.14620    1.000
    C118     C        0.47410    0.80474    0.15380    1.000
    H90      H        0.41900    0.78740    0.15710    1.000
    C119     C        0.56840    0.78578    0.15620    1.000
    C120     C        0.64690    0.81330    0.14790    1.000
    H91      H        0.71080    0.80170    0.14870    1.000
    C121     C        0.62840    0.85786    0.13850    1.000
    H92      H        0.68030    0.87570    0.13070    1.000
    C122     C        0.58760    0.73789    0.17070    1.000
    C123     C        0.50870    0.70685    0.13280    1.000
    H93      H        0.44090    0.71580    0.09790    1.000
    C124     C        0.53220    0.66273    0.14770    1.000
    H94      H        0.47870    0.64240    0.12200    1.000
    C125     C        0.70340    0.67771    0.23420    1.000
    H95      H        0.77030    0.66780    0.26910    1.000
    C126     C        0.68720    0.72243    0.22330    1.000
    H96      H        0.74200    0.74200    0.25070    1.000
    O27      O        0.59240    0.03838    0.30760    1.000
    O28      O        0.39524    0.04885    0.22256    1.000
    O29      O        0.50987    0.01759    0.14173    1.000
    O30      O        0.83510    0.18560    0.21980    1.000
    O31      O        0.81380    0.16860    0.35790    1.000
    O32      O        0.75020    0.23470    0.28700    1.000
    O33      O        0.45020    0.93582    0.51080    1.000
    O34      O        0.64880    0.93978    0.58918    1.000
    O35      O        0.56890    0.96269    0.42747    1.000
    O36      O        0.82840    0.79460    0.42620    1.000
    O37      O        0.84850    0.80180    0.57050    1.000
    O38      O        0.77100    0.74390    0.44900    1.000
    O39      O        0.75980    0.74020    0.52120    1.000
    Zn10     Zn       0.47570    0.44927    0.35948    1.000
    Zn11     Zn       0.33333    0.41706    0.79189    1.000
    Zn12     Zn       0.61372    0.47676    0.93044    1.000
    S7       S        0.22681    0.69025    0.22576    1.000
    S8       S        0.21429    0.28431    0.01121    1.000
    P7       P        0.49392    0.54820    0.28262    1.000
    P8       P        0.44306    0.43248    0.99939    1.000
    N19      N        0.77100    0.47180    0.00270    1.000
    N20      N        0.31500    0.45354    0.26460    1.000
    N21      N        0.63500    0.44426    0.45390    1.000
    N22      N        0.17620    0.41972    0.71950    1.000
    N23      N        0.46030    0.37702    0.36020    1.000
    N24      N        0.37210    0.14792    0.30290    1.000
    C127     C        0.35020    0.66572    0.28730    1.000
    C128     C        0.42540    0.68882    0.35450    1.000
    H97      H        0.41080    0.71700    0.36950    1.000
    C129     C        0.52260    0.66998    0.39970    1.000
    H98      H        0.57380    0.68560    0.44480    1.000
    C130     C        0.54390    0.62756    0.37780    1.000
    H99      H        0.61000    0.61530    0.40740    1.000
    C131     C        0.46710    0.60340    0.31200    1.000
    C132     C        0.36990    0.62281    0.26650    1.000
    H100     H        0.31790    0.60710    0.22210    1.000
    C133     C        0.43580    0.37720    0.03850    1.000
    C134     C        0.52650    0.35521    0.09210    1.000
    H101     H        0.59180    0.36890    0.10680    1.000
    C135     C        0.52040    0.31317    0.12390    1.000
    H102     H        0.58100    0.29920    0.16150    1.000
    C136     C        0.42410    0.29218    0.09960    1.000
    H103     H        0.42000    0.26380    0.12000    1.000
    C137     C        0.33610    0.31278    0.04630    1.000
    C138     C        0.34020    0.35564    0.01520    1.000
    H104     H        0.27860    0.36950    0.97890    1.000
    C139     C        0.81840    0.43273    0.02100    1.000
    H105     H        0.77790    0.40770    0.99990    1.000
    C140     C        0.92490    0.42767    0.06990    1.000
    H106     H        0.95520    0.39980    0.07990    1.000
    C141     C        0.98580    0.46464    0.10360    1.000
    C142     C        0.93710    0.50520    0.08420    1.000
    H107     H        0.97590    0.53080    0.10450    1.000
    C143     C        0.83060    0.50755    0.03460    1.000
    H108     H        0.79880    0.53510    0.02280    1.000
    C144     C        0.10060    0.46122    0.15730    1.000
    C145     C        0.16310    0.42746    0.14270    1.000
    H109     H        0.13410    0.40680    0.09730    1.000
    C146     C        0.26910    0.42536    0.19700    1.000
    H110     H        0.31020    0.40320    0.18570    1.000
    C147     C        0.25500    0.48630    0.27740    1.000
    H111     H        0.28620    0.50680    0.32270    1.000
    C148     C        0.14890    0.49090    0.22600    1.000
    H112     H        0.11020    0.51390    0.23770    1.000
    C149     C        0.71050    0.46823    0.43930    1.000
    H113     H        0.69100    0.48890    0.39280    1.000
    C150     C        0.81630    0.46350    0.49050    1.000
    H114     H        0.86610    0.48080    0.47800    1.000
    C151     C        0.84830    0.43305    0.56050    1.000
    C152     C        0.76950    0.40884    0.57760    1.000
    H115     H        0.78680    0.38850    0.62480    1.000
    C153     C        0.66540    0.41560    0.52310    1.000
    H116     H        0.61360    0.39940    0.53520    1.000
    C154     C        0.96210    0.42715    0.61560    1.000
    C155     C        0.03950    0.43632    0.57860    1.000
    H117     H        0.02060    0.44500    0.51830    1.000
    C156     C        0.14450    0.43241    0.63230    1.000
    H118     H        0.19540    0.43890    0.60700    1.000
    C157     C        0.10210    0.40948    0.75430    1.000
    H119     H        0.12320    0.39990    0.81430    1.000
    C158     C        0.99500    0.41253    0.70470    1.000
    H120     H        0.94580    0.40480    0.73100    1.000
    C159     C        0.53590    0.35003    0.35350    1.000
    H121     H        0.59870    0.36250    0.35380    1.000
    C160     C        0.52590    0.30474    0.34620    1.000
    H122     H        0.58100    0.28740    0.34290    1.000
    C161     C        0.43160    0.28578    0.34380    1.000
    C162     C        0.35310    0.31330    0.35210    1.000
    H123     H        0.28920    0.30170    0.35130    1.000
    C163     C        0.37160    0.35786    0.36150    1.000
    H124     H        0.31970    0.37570    0.36930    1.000
    C164     C        0.41240    0.23789    0.32930    1.000
    C165     C        0.49130    0.20685    0.36720    1.000
    H125     H        0.55910    0.21580    0.40210    1.000
    C166     C        0.46780    0.16273    0.35230    1.000
    H126     H        0.52130    0.14240    0.37800    1.000
    C167     C        0.29660    0.17771    0.26580    1.000
    H127     H        0.22970    0.16780    0.23090    1.000
    C168     C        0.31280    0.22243    0.27670    1.000
    H128     H        0.25800    0.24200    0.24930    1.000
    O40      O        0.40760    0.53838    0.19240    1.000
    O41      O        0.60476    0.54885    0.27744    1.000
    O42      O        0.49013    0.51759    0.35827    1.000
    O43      O        0.16490    0.68560    0.28020    1.000
    O44      O        0.18620    0.66860    0.14210    1.000
    O45      O        0.24980    0.73470    0.21300    1.000
    O46      O        0.54980    0.43582    0.98920    1.000
    O47      O        0.35120    0.43978    0.91082    1.000
    O48      O        0.43110    0.46269    0.07253    1.000
    O49      O        0.17160    0.29460    0.07380    1.000
    O50      O        0.15150    0.30180    0.92950    1.000
    O51      O        0.22900    0.24390    0.05100    1.000
    O52      O        0.24020    0.24020    0.97880    1.000
