# CIF file generated by openbabel 3.1.0, see https://openbabel.org
data_I
_chemical_name_common 'GOJFAN_charged'
_cell_length_a 22.571
_cell_length_b 22.571
_cell_length_c 22.571
_cell_angle_alpha 90
_cell_angle_beta 90
_cell_angle_gamma 90
_space_group_name_H-M_alt 'P 1'
_space_group_name_Hall 'P 1'
loop_
    _symmetry_equiv_pos_as_xyz
    x,y,z
loop_
    _atom_site_label
    _atom_site_type_symbol
    _atom_site_fract_x
    _atom_site_fract_y
    _atom_site_fract_z
    _atom_site_occupancy
    U1       U        0.79692    0.79692    0.79692    1.000
    U2       U        0.20308    0.20308    0.79692    1.000
    U3       U        0.20308    0.79692    0.20308    1.000
    U4       U        0.79692    0.20308    0.20308    1.000
    U5       U        0.79692    0.79692    0.20308    1.000
    U6       U        0.20308    0.20308    0.20308    1.000
    U7       U        0.79692    0.20308    0.79692    1.000
    U8       U        0.20308    0.79692    0.79692    1.000
    U9       U        0.50000    0.00000    0.77078    1.000
    U10      U        0.50000    0.00000    0.22922    1.000
    U11      U        0.77078    0.50000    0.00000    1.000
    U12      U        0.22922    0.50000    0.00000    1.000
    U13      U        0.00000    0.77078    0.50000    1.000
    U14      U        0.00000    0.22922    0.50000    1.000
    U15      U        0.00000    0.50000    0.22922    1.000
    U16      U        0.00000    0.50000    0.77078    1.000
    U17      U        0.50000    0.77078    0.00000    1.000
    U18      U        0.50000    0.22922    0.00000    1.000
    U19      U        0.77078    0.00000    0.50000    1.000
    U20      U        0.22922    0.00000    0.50000    1.000
    H1       H        0.68860    0.94000    0.68860    1.000
    H2       H        0.31140    0.06000    0.68860    1.000
    H3       H        0.31140    0.94000    0.31140    1.000
    H4       H        0.68860    0.06000    0.31140    1.000
    H5       H        0.68860    0.68860    0.94000    1.000
    H6       H        0.68860    0.31140    0.06000    1.000
    H7       H        0.31140    0.31140    0.94000    1.000
    H8       H        0.31140    0.68860    0.06000    1.000
    H9       H        0.94000    0.68860    0.68860    1.000
    H10      H        0.06000    0.68860    0.31140    1.000
    H11      H        0.94000    0.31140    0.31140    1.000
    H12      H        0.06000    0.31140    0.68860    1.000
    H13      H        0.94000    0.68860    0.31140    1.000
    H14      H        0.06000    0.31140    0.31140    1.000
    H15      H        0.94000    0.31140    0.68860    1.000
    H16      H        0.06000    0.68860    0.68860    1.000
    H17      H        0.68860    0.68860    0.06000    1.000
    H18      H        0.31140    0.68860    0.94000    1.000
    H19      H        0.31140    0.31140    0.06000    1.000
    H20      H        0.68860    0.31140    0.94000    1.000
    H21      H        0.68860    0.94000    0.31140    1.000
    H22      H        0.68860    0.06000    0.68860    1.000
    H23      H        0.31140    0.94000    0.68860    1.000
    H24      H        0.31140    0.06000    0.31140    1.000
    H25      H        0.71180    0.00000    0.79830    1.000
    H26      H        0.28820    0.00000    0.79830    1.000
    H27      H        0.28820    0.00000    0.20170    1.000
    H28      H        0.71180    0.00000    0.20170    1.000
    H29      H        0.79830    0.71180    0.00000    1.000
    H30      H        0.79830    0.28820    0.00000    1.000
    H31      H        0.20170    0.28820    0.00000    1.000
    H32      H        0.20170    0.71180    0.00000    1.000
    H33      H        0.00000    0.79830    0.71180    1.000
    H34      H        0.00000    0.79830    0.28820    1.000
    H35      H        0.00000    0.20170    0.28820    1.000
    H36      H        0.00000    0.20170    0.71180    1.000
    H37      H        0.00000    0.71180    0.20170    1.000
    H38      H        0.00000    0.28820    0.20170    1.000
    H39      H        0.00000    0.28820    0.79830    1.000
    H40      H        0.00000    0.71180    0.79830    1.000
    H41      H        0.71180    0.79830    0.00000    1.000
    H42      H        0.28820    0.79830    0.00000    1.000
    H43      H        0.28820    0.20170    0.00000    1.000
    H44      H        0.71180    0.20170    0.00000    1.000
    H45      H        0.79830    0.00000    0.28820    1.000
    H46      H        0.79830    0.00000    0.71180    1.000
    H47      H        0.20170    0.00000    0.71180    1.000
    H48      H        0.20170    0.00000    0.28820    1.000
    C1       C        0.74510    0.89850    0.74510    1.000
    C2       C        0.71810    0.95180    0.71810    1.000
    C3       C        0.25490    0.10150    0.74510    1.000
    C4       C        0.28190    0.04820    0.71810    1.000
    C5       C        0.25490    0.89850    0.25490    1.000
    C6       C        0.28190    0.95180    0.28190    1.000
    C7       C        0.74510    0.10150    0.25490    1.000
    C8       C        0.71810    0.04820    0.28190    1.000
    C9       C        0.74510    0.74510    0.89850    1.000
    C10      C        0.71810    0.71810    0.95180    1.000
    C11      C        0.74510    0.25490    0.10150    1.000
    C12      C        0.71810    0.28190    0.04820    1.000
    C13      C        0.25490    0.25490    0.89850    1.000
    C14      C        0.28190    0.28190    0.95180    1.000
    C15      C        0.25490    0.74510    0.10150    1.000
    C16      C        0.28190    0.71810    0.04820    1.000
    C17      C        0.89850    0.74510    0.74510    1.000
    C18      C        0.95180    0.71810    0.71810    1.000
    C19      C        0.10150    0.74510    0.25490    1.000
    C20      C        0.04820    0.71810    0.28190    1.000
    C21      C        0.89850    0.25490    0.25490    1.000
    C22      C        0.95180    0.28190    0.28190    1.000
    C23      C        0.10150    0.25490    0.74510    1.000
    C24      C        0.04820    0.28190    0.71810    1.000
    C25      C        0.89850    0.74510    0.25490    1.000
    C26      C        0.95180    0.71810    0.28190    1.000
    C27      C        0.10150    0.25490    0.25490    1.000
    C28      C        0.04820    0.28190    0.28190    1.000
    C29      C        0.89850    0.25490    0.74510    1.000
    C30      C        0.95180    0.28190    0.71810    1.000
    C31      C        0.10150    0.74510    0.74510    1.000
    C32      C        0.04820    0.71810    0.71810    1.000
    C33      C        0.74510    0.74510    0.10150    1.000
    C34      C        0.71810    0.71810    0.04820    1.000
    C35      C        0.25490    0.74510    0.89850    1.000
    C36      C        0.28190    0.71810    0.95180    1.000
    C37      C        0.25490    0.25490    0.10150    1.000
    C38      C        0.28190    0.28190    0.04820    1.000
    C39      C        0.74510    0.25490    0.89850    1.000
    C40      C        0.71810    0.28190    0.95180    1.000
    C41      C        0.74510    0.89850    0.25490    1.000
    C42      C        0.71810    0.95180    0.28190    1.000
    C43      C        0.74510    0.10150    0.74510    1.000
    C44      C        0.71810    0.04820    0.71810    1.000
    C45      C        0.25490    0.89850    0.74510    1.000
    C46      C        0.28190    0.95180    0.71810    1.000
    C47      C        0.25490    0.10150    0.25490    1.000
    C48      C        0.28190    0.04820    0.28190    1.000
    C49      C        0.69170    0.00000    0.75980    1.000
    C50      C        0.62630    0.00000    0.76740    1.000
    C51      C        0.30830    0.00000    0.75980    1.000
    C52      C        0.37370    0.00000    0.76740    1.000
    C53      C        0.30830    0.00000    0.24020    1.000
    C54      C        0.37370    0.00000    0.23260    1.000
    C55      C        0.69170    0.00000    0.24020    1.000
    C56      C        0.62630    0.00000    0.23260    1.000
    C57      C        0.75980    0.69170    0.00000    1.000
    C58      C        0.76740    0.62630    0.00000    1.000
    C59      C        0.75980    0.30830    0.00000    1.000
    C60      C        0.76740    0.37370    0.00000    1.000
    C61      C        0.24020    0.30830    0.00000    1.000
    C62      C        0.23260    0.37370    0.00000    1.000
    C63      C        0.24020    0.69170    0.00000    1.000
    C64      C        0.23260    0.62630    0.00000    1.000
    C65      C        0.00000    0.75980    0.69170    1.000
    C66      C        0.00000    0.76740    0.62630    1.000
    C67      C        0.00000    0.75980    0.30830    1.000
    C68      C        0.00000    0.76740    0.37370    1.000
    C69      C        0.00000    0.24020    0.30830    1.000
    C70      C        0.00000    0.23260    0.37370    1.000
    C71      C        0.00000    0.24020    0.69170    1.000
    C72      C        0.00000    0.23260    0.62630    1.000
    C73      C        0.00000    0.69170    0.24020    1.000
    C74      C        0.00000    0.62630    0.23260    1.000
    C75      C        0.00000    0.30830    0.24020    1.000
    C76      C        0.00000    0.37370    0.23260    1.000
    C77      C        0.00000    0.30830    0.75980    1.000
    C78      C        0.00000    0.37370    0.76740    1.000
    C79      C        0.00000    0.69170    0.75980    1.000
    C80      C        0.00000    0.62630    0.76740    1.000
    C81      C        0.69170    0.75980    0.00000    1.000
    C82      C        0.62630    0.76740    0.00000    1.000
    C83      C        0.30830    0.75980    0.00000    1.000
    C84      C        0.37370    0.76740    0.00000    1.000
    C85      C        0.30830    0.24020    0.00000    1.000
    C86      C        0.37370    0.23260    0.00000    1.000
    C87      C        0.69170    0.24020    0.00000    1.000
    C88      C        0.62630    0.23260    0.00000    1.000
    C89      C        0.75980    0.00000    0.30830    1.000
    C90      C        0.76740    0.00000    0.37370    1.000
    C91      C        0.75980    0.00000    0.69170    1.000
    C92      C        0.76740    0.00000    0.62630    1.000
    C93      C        0.24020    0.00000    0.69170    1.000
    C94      C        0.23260    0.00000    0.62630    1.000
    C95      C        0.24020    0.00000    0.30830    1.000
    C96      C        0.23260    0.00000    0.37370    1.000
    O1       O        0.79030    0.87610    0.72230    1.000
    O2       O        0.59870    0.04800    0.75840    1.000
    O3       O        0.20970    0.12390    0.72230    1.000
    O4       O        0.40130    0.95200    0.75840    1.000
    O5       O        0.20970    0.87610    0.27770    1.000
    O6       O        0.40130    0.04800    0.24160    1.000
    O7       O        0.79030    0.12390    0.27770    1.000
    O8       O        0.59870    0.95200    0.24160    1.000
    O9       O        0.72230    0.79030    0.87610    1.000
    O10      O        0.75840    0.59870    0.04800    1.000
    O11      O        0.72230    0.20970    0.12390    1.000
    O12      O        0.75840    0.40130    0.95200    1.000
    O13      O        0.27770    0.20970    0.87610    1.000
    O14      O        0.24160    0.40130    0.04800    1.000
    O15      O        0.27770    0.79030    0.12390    1.000
    O16      O        0.24160    0.59870    0.95200    1.000
    O17      O        0.87610    0.72230    0.79030    1.000
    O18      O        0.04800    0.75840    0.59870    1.000
    O19      O        0.12390    0.72230    0.20970    1.000
    O20      O        0.95200    0.75840    0.40130    1.000
    O21      O        0.87610    0.27770    0.20970    1.000
    O22      O        0.04800    0.24160    0.40130    1.000
    O23      O        0.12390    0.27770    0.79030    1.000
    O24      O        0.95200    0.24160    0.59870    1.000
    O25      O        0.87610    0.79030    0.27770    1.000
    O26      O        0.04800    0.59870    0.24160    1.000
    O27      O        0.12390    0.20970    0.27770    1.000
    O28      O        0.95200    0.40130    0.24160    1.000
    O29      O        0.87610    0.20970    0.72230    1.000
    O30      O        0.04800    0.40130    0.75840    1.000
    O31      O        0.12390    0.79030    0.72230    1.000
    O32      O        0.95200    0.59870    0.75840    1.000
    O33      O        0.79030    0.72230    0.12390    1.000
    O34      O        0.59870    0.75840    0.95200    1.000
    O35      O        0.20970    0.72230    0.87610    1.000
    O36      O        0.40130    0.75840    0.04800    1.000
    O37      O        0.20970    0.27770    0.12390    1.000
    O38      O        0.40130    0.24160    0.95200    1.000
    O39      O        0.79030    0.27770    0.87610    1.000
    O40      O        0.59870    0.24160    0.04800    1.000
    O41      O        0.72230    0.87610    0.20970    1.000
    O42      O        0.75840    0.04800    0.40130    1.000
    O43      O        0.72230    0.12390    0.79030    1.000
    O44      O        0.75840    0.95200    0.59870    1.000
    O45      O        0.27770    0.87610    0.79030    1.000
    O46      O        0.24160    0.04800    0.59870    1.000
    O47      O        0.27770    0.12390    0.20970    1.000
    O48      O        0.24160    0.95200    0.40130    1.000
    O49      O        0.20970    0.12390    0.27770    1.000
    O50      O        0.40130    0.95200    0.24160    1.000
    O51      O        0.79030    0.87610    0.27770    1.000
    O52      O        0.59870    0.04800    0.24160    1.000
    O53      O        0.79030    0.12390    0.72230    1.000
    O54      O        0.59870    0.95200    0.75840    1.000
    O55      O        0.20970    0.87610    0.72230    1.000
    O56      O        0.40130    0.04800    0.75840    1.000
    O57      O        0.27770    0.20970    0.12390    1.000
    O58      O        0.24160    0.40130    0.95200    1.000
    O59      O        0.27770    0.79030    0.87610    1.000
    O60      O        0.24160    0.59870    0.04800    1.000
    O61      O        0.72230    0.79030    0.12390    1.000
    O62      O        0.75840    0.59870    0.95200    1.000
    O63      O        0.72230    0.20970    0.87610    1.000
    O64      O        0.75840    0.40130    0.04800    1.000
    O65      O        0.12390    0.27770    0.20970    1.000
    O66      O        0.95200    0.24160    0.40130    1.000
    O67      O        0.87610    0.27770    0.79030    1.000
    O68      O        0.04800    0.24160    0.59870    1.000
    O69      O        0.12390    0.72230    0.79030    1.000
    O70      O        0.95200    0.75840    0.59870    1.000
    O71      O        0.87610    0.72230    0.20970    1.000
    O72      O        0.04800    0.75840    0.40130    1.000
    O73      O        0.12390    0.20970    0.72230    1.000
    O74      O        0.95200    0.40130    0.75840    1.000
    O75      O        0.87610    0.79030    0.72230    1.000
    O76      O        0.04800    0.59870    0.75840    1.000
    O77      O        0.12390    0.79030    0.27770    1.000
    O78      O        0.95200    0.59870    0.24160    1.000
    O79      O        0.87610    0.20970    0.27770    1.000
    O80      O        0.04800    0.40130    0.24160    1.000
    O81      O        0.20970    0.27770    0.87610    1.000
    O82      O        0.40130    0.24160    0.04800    1.000
    O83      O        0.79030    0.27770    0.12390    1.000
    O84      O        0.59870    0.24160    0.95200    1.000
    O85      O        0.79030    0.72230    0.87610    1.000
    O86      O        0.59870    0.75840    0.04800    1.000
    O87      O        0.20970    0.72230    0.12390    1.000
    O88      O        0.40130    0.75840    0.95200    1.000
    O89      O        0.27770    0.12390    0.79030    1.000
    O90      O        0.24160    0.95200    0.59870    1.000
    O91      O        0.27770    0.87610    0.20970    1.000
    O92      O        0.24160    0.04800    0.40130    1.000
    O93      O        0.72230    0.12390    0.20970    1.000
    O94      O        0.75840    0.95200    0.40130    1.000
    O95      O        0.72230    0.87610    0.79030    1.000
    O96      O        0.75840    0.04800    0.59870    1.000
    O97      O        0.75150    0.75150    0.75150    1.000
    O98      O        0.84230    0.84230    0.84230    1.000
    O99      O        0.24850    0.24850    0.75150    1.000
    O100     O        0.15770    0.15770    0.84230    1.000
    O101     O        0.24850    0.75150    0.24850    1.000
    O102     O        0.15770    0.84230    0.15770    1.000
    O103     O        0.75150    0.24850    0.24850    1.000
    O104     O        0.84230    0.15770    0.15770    1.000
    O105     O        0.75150    0.75150    0.24850    1.000
    O106     O        0.84230    0.84230    0.15770    1.000
    O107     O        0.24850    0.24850    0.24850    1.000
    O108     O        0.15770    0.15770    0.15770    1.000
    O109     O        0.75150    0.24850    0.75150    1.000
    O110     O        0.84230    0.15770    0.84230    1.000
    O111     O        0.24850    0.75150    0.75150    1.000
    O112     O        0.15770    0.84230    0.84230    1.000
    O113     O        0.50000    0.03450    0.84290    1.000
    O114     O        0.50000    0.97420    0.69890    1.000
    O115     O        0.50000    0.10240    0.72370    1.000
    O116     O        0.50000    0.96550    0.84290    1.000
    O117     O        0.50000    0.02580    0.69890    1.000
    O118     O        0.50000    0.89760    0.72370    1.000
    O119     O        0.50000    0.03450    0.15710    1.000
    O120     O        0.50000    0.97420    0.30110    1.000
    O121     O        0.50000    0.10240    0.27630    1.000
    O122     O        0.50000    0.96550    0.15710    1.000
    O123     O        0.50000    0.02580    0.30110    1.000
    O124     O        0.50000    0.89760    0.27630    1.000
    O125     O        0.84290    0.50000    0.03450    1.000
    O126     O        0.69890    0.50000    0.97420    1.000
    O127     O        0.72370    0.50000    0.10240    1.000
    O128     O        0.84290    0.50000    0.96550    1.000
    O129     O        0.69890    0.50000    0.02580    1.000
    O130     O        0.72370    0.50000    0.89760    1.000
    O131     O        0.15710    0.50000    0.03450    1.000
    O132     O        0.30110    0.50000    0.97420    1.000
    O133     O        0.27630    0.50000    0.10240    1.000
    O134     O        0.15710    0.50000    0.96550    1.000
    O135     O        0.30110    0.50000    0.02580    1.000
    O136     O        0.27630    0.50000    0.89760    1.000
    O137     O        0.03450    0.84290    0.50000    1.000
    O138     O        0.97420    0.69890    0.50000    1.000
    O139     O        0.10240    0.72370    0.50000    1.000
    O140     O        0.96550    0.84290    0.50000    1.000
    O141     O        0.02580    0.69890    0.50000    1.000
    O142     O        0.89760    0.72370    0.50000    1.000
    O143     O        0.03450    0.15710    0.50000    1.000
    O144     O        0.97420    0.30110    0.50000    1.000
    O145     O        0.10240    0.27630    0.50000    1.000
    O146     O        0.96550    0.15710    0.50000    1.000
    O147     O        0.02580    0.30110    0.50000    1.000
    O148     O        0.89760    0.27630    0.50000    1.000
    O149     O        0.03450    0.50000    0.15710    1.000
    O150     O        0.97420    0.50000    0.30110    1.000
    O151     O        0.10240    0.50000    0.27630    1.000
    O152     O        0.96550    0.50000    0.15710    1.000
    O153     O        0.02580    0.50000    0.30110    1.000
    O154     O        0.89760    0.50000    0.27630    1.000
    O155     O        0.03450    0.50000    0.84290    1.000
    O156     O        0.97420    0.50000    0.69890    1.000
    O157     O        0.10240    0.50000    0.72370    1.000
    O158     O        0.96550    0.50000    0.84290    1.000
    O159     O        0.02580    0.50000    0.69890    1.000
    O160     O        0.89760    0.50000    0.72370    1.000
    O161     O        0.50000    0.84290    0.96550    1.000
    O162     O        0.50000    0.69890    0.02580    1.000
    O163     O        0.50000    0.72370    0.89760    1.000
    O164     O        0.50000    0.84290    0.03450    1.000
    O165     O        0.50000    0.69890    0.97420    1.000
    O166     O        0.50000    0.72370    0.10240    1.000
    O167     O        0.50000    0.15710    0.96550    1.000
    O168     O        0.50000    0.30110    0.02580    1.000
    O169     O        0.50000    0.27630    0.89760    1.000
    O170     O        0.50000    0.15710    0.03450    1.000
    O171     O        0.50000    0.30110    0.97420    1.000
    O172     O        0.50000    0.27630    0.10240    1.000
    O173     O        0.84290    0.03450    0.50000    1.000
    O174     O        0.69890    0.97420    0.50000    1.000
    O175     O        0.72370    0.10240    0.50000    1.000
    O176     O        0.84290    0.96550    0.50000    1.000
    O177     O        0.69890    0.02580    0.50000    1.000
    O178     O        0.72370    0.89760    0.50000    1.000
    O179     O        0.15710    0.03450    0.50000    1.000
    O180     O        0.30110    0.97420    0.50000    1.000
    O181     O        0.27630    0.10240    0.50000    1.000
    O182     O        0.15710    0.96550    0.50000    1.000
    O183     O        0.30110    0.02580    0.50000    1.000
    O184     O        0.27630    0.89760    0.50000    1.000
