# CIF file generated by openbabel 3.1.0, see https://openbabel.org
data_I
_chemical_name_common 'image0'
_cell_length_a 7.9418
_cell_length_b 12.087
_cell_length_c 13.358
_cell_angle_alpha 112.101
_cell_angle_beta 105.051
_cell_angle_gamma 91.197
_space_group_name_H-M_alt 'P 1'
_space_group_name_Hall 'P 1'
loop_
    _symmetry_equiv_pos_as_xyz
    x,y,z
loop_
    _atom_site_label
    _atom_site_type_symbol
    _atom_site_fract_x
    _atom_site_fract_y
    _atom_site_fract_z
    _atom_site_occupancy
    Tb1      Tb       0.24936    0.98099    0.01070    1.000
    C1       C        0.83820    0.39750    0.55570    1.000
    C2       C        0.86350    0.19910    0.56560    1.000
    C3       C        0.03220    0.38240    0.72260    1.000
    C4       C        0.00170    0.57860    0.71380    1.000
    H1       H        0.00540    0.61030    0.65750    1.000
    H2       H        0.11670    0.60030    0.76890    1.000
    C5       C        0.86600    0.63290    0.77110    1.000
    H3       H        0.85240    0.59200    0.81920    1.000
    H4       H        0.75430    0.61720    0.71380    1.000
    C6       C        0.90480    0.76620    0.84150    1.000
    C7       C        0.64500    0.21510    0.40720    1.000
    H5       H        0.56850    0.27450    0.39880    1.000
    H6       H        0.57630    0.15210    0.41380    1.000
    C8       C        0.70320    0.16120    0.30300    1.000
    H7       H        0.75690    0.22500    0.28940    1.000
    H8       H        0.79110    0.10910    0.31410    1.000
    C9       C        0.55220    0.09040    0.20290    1.000
    C10      C        0.07280    0.18430    0.72970    1.000
    H9       H        0.18950    0.22410    0.77750    1.000
    H10      H        0.08520    0.10680    0.67560    1.000
    C11      C        0.96340    0.16510    0.80210    1.000
    H11      H        0.94450    0.24270    0.85280    1.000
    H12      H        0.84930    0.12070    0.75370    1.000
    C12      C        0.05290    0.09720    0.86980    1.000
    N1       N        0.95940    0.44700    0.65950    1.000
    N2       N        0.98890    0.25810    0.66900    1.000
    N3       N        0.78960    0.27290    0.51250    1.000
    O1       O        0.77360    0.45680    0.50370    1.000
    O2       O        0.13040    0.42950    0.81530    1.000
    O3       O        0.82220    0.09170    0.52460    1.000
    O4       O        0.78540    0.81630    0.87940    1.000
    O5       O        0.05850    0.81530    0.85980    1.000
    O6       O        0.96480    0.05260    0.91450    1.000
    O7       O        0.21320    0.08490    0.88090    1.000
    O8       O        0.55530    0.08600    0.10570    1.000
    O9       O        0.42410    0.04120    0.21400    1.000
    Tb2      Tb       0.75064    0.01901    0.98930    1.000
    C13      C        0.16180    0.60250    0.44430    1.000
    C14      C        0.13650    0.80090    0.43440    1.000
    C15      C        0.96780    0.61760    0.27740    1.000
    C16      C        0.99830    0.42140    0.28620    1.000
    H13      H        0.99460    0.38970    0.34250    1.000
    H14      H        0.88330    0.39970    0.23110    1.000
    C17      C        0.13400    0.36710    0.22890    1.000
    H15      H        0.14760    0.40800    0.18080    1.000
    H16      H        0.24570    0.38280    0.28620    1.000
    C18      C        0.09520    0.23380    0.15850    1.000
    C19      C        0.35500    0.78490    0.59280    1.000
    H17      H        0.43150    0.72550    0.60120    1.000
    H18      H        0.42370    0.84790    0.58620    1.000
    C20      C        0.29680    0.83880    0.69700    1.000
    H19      H        0.24310    0.77500    0.71060    1.000
    H20      H        0.20890    0.89090    0.68590    1.000
    C21      C        0.44780    0.90960    0.79710    1.000
    C22      C        0.92720    0.81570    0.27030    1.000
    H21      H        0.81050    0.77590    0.22250    1.000
    H22      H        0.91480    0.89320    0.32440    1.000
    C23      C        0.03660    0.83490    0.19790    1.000
    H23      H        0.05550    0.75730    0.14720    1.000
    H24      H        0.15070    0.87930    0.24630    1.000
    C24      C        0.94710    0.90280    0.13020    1.000
    N4       N        0.04060    0.55300    0.34050    1.000
    N5       N        0.01110    0.74190    0.33100    1.000
    N6       N        0.21040    0.72710    0.48750    1.000
    O10      O        0.22640    0.54320    0.49630    1.000
    O11      O        0.86960    0.57050    0.18470    1.000
    O12      O        0.17780    0.90830    0.47540    1.000
    O13      O        0.21460    0.18370    0.12060    1.000
    O14      O        0.94150    0.18470    0.14020    1.000
    O15      O        0.03520    0.94740    0.08550    1.000
    O16      O        0.78680    0.91510    0.11910    1.000
    O17      O        0.44470    0.91400    0.89430    1.000
    O18      O        0.57590    0.95880    0.78600    1.000
