# CIF file generated by openbabel 3.1.0, see https://openbabel.org
data_I
_chemical_name_common 'RORRIB_clean'
_cell_length_a 8.9367
_cell_length_b 9.4944
_cell_length_c 11.9769
_cell_angle_alpha 83.967
_cell_angle_beta 73.74
_cell_angle_gamma 67.598
_space_group_name_H-M_alt 'P 1'
_space_group_name_Hall 'P 1'
loop_
    _symmetry_equiv_pos_as_xyz
    x,y,z
loop_
    _atom_site_label
    _atom_site_type_symbol
    _atom_site_fract_x
    _atom_site_fract_y
    _atom_site_fract_z
    _atom_site_occupancy
    U1       U        0.57955    0.71034    0.82113    1.000
    U2       U        0.42045    0.28966    0.17887    1.000
    U3       U        0.50000    0.00000    0.50000    1.000
    H1       H        0.76360    0.12580    0.96000    1.000
    H2       H        0.01960    0.94450    0.36300    1.000
    H3       H        0.29240    0.73660    0.25710    1.000
    H4       H        0.98250    0.08100    0.14340    1.000
    H5       H        0.42580    0.78490    0.15690    1.000
    H6       H        0.23640    0.87420    0.04000    1.000
    H7       H        0.99650    0.22400    0.78420    1.000
    H8       H        0.98910    0.12050    0.33370    1.000
    H9       H        0.97430    0.84810    0.09280    1.000
    H10      H        0.01090    0.87950    0.66630    1.000
    H11      H        0.01750    0.91900    0.85660    1.000
    H12      H        0.70760    0.26340    0.74290    1.000
    H13      H        0.98040    0.05550    0.63700    1.000
    H14      H        0.57420    0.21510    0.84310    1.000
    H15      H        0.02570    0.15190    0.90720    1.000
    H16      H        0.75790    0.95270    0.81920    1.000
    H17      H        0.24210    0.04730    0.18080    1.000
    H18      H        0.00350    0.77600    0.21580    1.000
    C1       C        0.30470    0.81090    0.19420    1.000
    C2       C        0.03840    0.01690    0.29980    1.000
    C3       C        0.31770    0.98590    0.33040    1.000
    C4       C        0.02740    0.84910    0.15480    1.000
    C5       C        0.29560    0.64120    0.05380    1.000
    C6       C        0.21640    0.80230    0.10450    1.000
    C7       C        0.78360    0.19770    0.89550    1.000
    C8       C        0.22680    0.97490    0.24600    1.000
    C9       C        0.23340    0.93540    0.75290    1.000
    C10      C        0.77320    0.02510    0.75400    1.000
    C11      C        0.69530    0.18910    0.80580    1.000
    C12      C        0.97260    0.15090    0.84520    1.000
    C13      C        0.70440    0.35880    0.94620    1.000
    C14      C        0.96160    0.98310    0.70020    1.000
    C15      C        0.04570    0.98850    0.79240    1.000
    C16      C        0.68230    0.01410    0.66960    1.000
    C17      C        0.76660    0.06460    0.24710    1.000
    C18      C        0.95430    0.01150    0.20760    1.000
    O1       O        0.30380    0.92630    0.64610    1.000
    O2       O        0.38230    0.61870    0.95040    1.000
    O3       O        0.68460    0.08900    0.57800    1.000
    O4       O        0.69620    0.07370    0.35390    1.000
    O5       O        0.61770    0.38130    0.04960    1.000
    O6       O        0.31020    0.89850    0.83190    1.000
    O7       O        0.68980    0.10150    0.16810    1.000
    O8       O        0.40280    0.07310    0.30940    1.000
    O9       O        0.26550    0.53730    0.11890    1.000
    O10      O        0.59720    0.92690    0.69060    1.000
    O11      O        0.73450    0.46270    0.88110    1.000
    O12      O        0.31540    0.91100    0.42200    1.000
