# CIF file generated by openbabel 3.1.0, see https://openbabel.org
data_I
_chemical_name_common 'image0'
_cell_length_a 9.6455
_cell_length_b 9.6406
_cell_length_c 10.5987
_cell_angle_alpha 74.159
_cell_angle_beta 74.714
_cell_angle_gamma 88.955
_space_group_name_H-M_alt 'P 1'
_space_group_name_Hall 'P 1'
loop_
    _symmetry_equiv_pos_as_xyz
    x,y,z
loop_
    _atom_site_label
    _atom_site_type_symbol
    _atom_site_fract_x
    _atom_site_fract_y
    _atom_site_fract_z
    _atom_site_occupancy
    P1       P        0.50290    0.96890    0.79430    1.000
    P2       P        0.27590    0.47610    0.90280    1.000
    P3       P        0.03400    0.79870    0.64960    1.000
    P4       P        0.18710    0.76810    0.13990    1.000
    Al1      Al       0.23160    0.78660    0.83890    1.000
    Al2      Al       0.48430    0.22430    0.92290    1.000
    Al3      Al       0.17850    0.95120    0.34220    1.000
    Al4      Al       0.97720    0.50040    0.86750    1.000
    O1       O        0.16960    0.44660    0.83040    1.000
    O2       O        0.40390    0.38390    0.87720    1.000
    O3       O        0.19950    0.84320    0.98980    1.000
    O4       O        0.44830    0.09240    0.85120    1.000
    O5       O        0.38950    0.91280    0.74520    1.000
    O6       O        0.33770    0.63320    0.83770    1.000
    O7       O        0.99240    0.64090    0.70720    1.000
    O8       O        0.10520    0.83250    0.49840    1.000
    O9       O        0.04690    0.64030    0.94710    1.000
    O10      O        0.21170    0.45000    0.05520    1.000
    O11      O        0.13510    0.85160    0.71730    1.000
    O12      O        0.33600    0.71560    0.15390    1.000
    O13      O        0.14710    0.88090    0.21580    1.000
    O14      O        0.63680    0.02010    0.67890    1.000
    O15      O        0.54550    0.84970    0.90250    1.000
    O16      O        0.08070    0.64180    0.19670    1.000
    O17      O        0.89560    0.88300    0.66850    1.000
    P5       P        0.49710    0.03110    0.20570    1.000
    P6       P        0.72410    0.52390    0.09720    1.000
    P7       P        0.96600    0.20130    0.35040    1.000
    P8       P        0.81290    0.23190    0.86010    1.000
    Al5      Al       0.76840    0.21340    0.16110    1.000
    Al6      Al       0.51570    0.77570    0.07710    1.000
    Al7      Al       0.82150    0.04880    0.65780    1.000
    Al8      Al       0.02280    0.49960    0.13250    1.000
    O18      O        0.83040    0.55340    0.16960    1.000
    O19      O        0.59610    0.61610    0.12280    1.000
    O20      O        0.80050    0.15680    0.01020    1.000
    O21      O        0.55170    0.90760    0.14880    1.000
    O22      O        0.61050    0.08720    0.25480    1.000
    O23      O        0.66230    0.36680    0.16230    1.000
    O24      O        0.00760    0.35910    0.29280    1.000
    O25      O        0.89480    0.16750    0.50160    1.000
    O26      O        0.95310    0.35970    0.05290    1.000
    O27      O        0.78830    0.55000    0.94480    1.000
    O28      O        0.86490    0.14840    0.28270    1.000
    O29      O        0.66400    0.28440    0.84610    1.000
    O30      O        0.85290    0.11910    0.78420    1.000
    O31      O        0.36320    0.97990    0.32110    1.000
    O32      O        0.45450    0.15030    0.09750    1.000
    O33      O        0.91930    0.35820    0.80330    1.000
    O34      O        0.10440    0.11700    0.33150    1.000
