# CIF file generated by openbabel 3.1.0, see https://openbabel.org
data_I
_chemical_name_common 'image0'
_cell_length_a 11.6844
_cell_length_b 11.6844
_cell_length_c 27.555
_cell_angle_alpha 90
_cell_angle_beta 90
_cell_angle_gamma 90
_space_group_name_H-M_alt 'P 1'
_space_group_name_Hall 'P 1'
loop_
    _symmetry_equiv_pos_as_xyz
    x,y,z
loop_
    _atom_site_label
    _atom_site_type_symbol
    _atom_site_fract_x
    _atom_site_fract_y
    _atom_site_fract_z
    _atom_site_occupancy
    Li1      Li       0.22970    0.28300    0.08170    1.000
    C1       C        0.11420    0.86930    0.08506    1.000
    H1       H        0.10130    0.81130    0.10750    1.000
    C2       C        0.15260    0.92360    0.00944    1.000
    C3       C        0.13830    0.03650    0.02277    1.000
    C4       C        0.11710    0.06690    0.07148    1.000
    C5       C        0.17540    0.02360    0.94623    1.000
    H2       H        0.18860    0.04460    0.91420    1.000
    N1       N        0.10190    0.97610    0.10201    1.000
    N2       N        0.14190    0.83480    0.04101    1.000
    N3       N        0.17670    0.91550    0.96104    1.000
    N4       N        0.15340    0.09960    0.98110    1.000
    O1       O        0.11200    0.16790    0.08735    1.000
    H3       H        0.16300    0.94900    0.11700    1.000
    H4       H        0.24200    0.87100    0.95200    1.000
    H5       H        0.14600    0.17600    0.97300    1.000
    Li2      Li       0.72970    0.78300    0.58170    1.000
    C6       C        0.61420    0.36930    0.58506    1.000
    H6       H        0.60130    0.31130    0.60750    1.000
    C7       C        0.65260    0.42360    0.50944    1.000
    C8       C        0.63830    0.53650    0.52277    1.000
    C9       C        0.61710    0.56690    0.57148    1.000
    C10      C        0.67540    0.52360    0.44623    1.000
    H7       H        0.68860    0.54460    0.41420    1.000
    N5       N        0.60190    0.47610    0.60201    1.000
    N6       N        0.64190    0.33480    0.54101    1.000
    N7       N        0.67670    0.41550    0.46104    1.000
    N8       N        0.65340    0.59960    0.48110    1.000
    O2       O        0.61200    0.66790    0.58735    1.000
    H8       H        0.66300    0.44900    0.61700    1.000
    H9       H        0.74200    0.37100    0.45200    1.000
    H10      H        0.64600    0.67600    0.47300    1.000
    Li3      Li       0.27030    0.71700    0.58170    1.000
    C11      C        0.38580    0.13070    0.58506    1.000
    H11      H        0.39870    0.18870    0.60750    1.000
    C12      C        0.34740    0.07640    0.50944    1.000
    C13      C        0.36170    0.96350    0.52277    1.000
    C14      C        0.38290    0.93310    0.57148    1.000
    C15      C        0.32460    0.97640    0.44623    1.000
    H12      H        0.31140    0.95540    0.41420    1.000
    N9       N        0.39810    0.02390    0.60201    1.000
    N10      N        0.35810    0.16520    0.54101    1.000
    N11      N        0.32330    0.08450    0.46104    1.000
    N12      N        0.34660    0.90040    0.48110    1.000
    O3       O        0.38800    0.83210    0.58735    1.000
    H13      H        0.33700    0.05100    0.61700    1.000
    H14      H        0.25800    0.12900    0.45200    1.000
    H15      H        0.35400    0.82400    0.47300    1.000
    Li4      Li       0.77030    0.21700    0.08170    1.000
    C16      C        0.88580    0.63070    0.08506    1.000
    H16      H        0.89870    0.68870    0.10750    1.000
    C17      C        0.84740    0.57640    0.00944    1.000
    C18      C        0.86170    0.46350    0.02277    1.000
    C19      C        0.88290    0.43310    0.07148    1.000
    C20      C        0.82460    0.47640    0.94623    1.000
    H17      H        0.81140    0.45540    0.91420    1.000
    N13      N        0.89810    0.52390    0.10201    1.000
    N14      N        0.85810    0.66520    0.04101    1.000
    N15      N        0.82330    0.58450    0.96104    1.000
    N16      N        0.84660    0.40040    0.98110    1.000
    O4       O        0.88800    0.33210    0.08735    1.000
    H18      H        0.83700    0.55100    0.11700    1.000
    H19      H        0.75800    0.62900    0.95200    1.000
    H20      H        0.85400    0.32400    0.97300    1.000
    Li5      Li       0.46700    0.47970    0.33170    1.000
    C21      C        0.88070    0.36420    0.33506    1.000
    H21      H        0.93870    0.35130    0.35750    1.000
    C22      C        0.82640    0.40260    0.25944    1.000
    C23      C        0.71350    0.38830    0.27277    1.000
    C24      C        0.68310    0.36710    0.32148    1.000
    C25      C        0.72640    0.42540    0.19623    1.000
    H22      H        0.70540    0.43860    0.16420    1.000
    N17      N        0.77390    0.35190    0.35201    1.000
    N18      N        0.91520    0.39190    0.29101    1.000
    N19      N        0.83450    0.42670    0.21104    1.000
    N20      N        0.65040    0.40340    0.23110    1.000
    O5       O        0.58210    0.36200    0.33735    1.000
    H23      H        0.80100    0.41300    0.36700    1.000
    H24      H        0.87900    0.49200    0.20200    1.000
    H25      H        0.57400    0.39600    0.22300    1.000
    Li6      Li       0.96700    0.97970    0.83170    1.000
    C26      C        0.38070    0.86420    0.83506    1.000
    H26      H        0.43870    0.85130    0.85750    1.000
    C27      C        0.32640    0.90260    0.75944    1.000
    C28      C        0.21350    0.88830    0.77277    1.000
    C29      C        0.18310    0.86710    0.82148    1.000
    C30      C        0.22640    0.92540    0.69623    1.000
    H27      H        0.20540    0.93860    0.66420    1.000
    N21      N        0.27390    0.85190    0.85201    1.000
    N22      N        0.41520    0.89190    0.79101    1.000
    N23      N        0.33450    0.92670    0.71104    1.000
    N24      N        0.15040    0.90340    0.73110    1.000
    O6       O        0.08210    0.86200    0.83735    1.000
    H28      H        0.30100    0.91300    0.86700    1.000
    H29      H        0.37900    0.99200    0.70200    1.000
    H30      H        0.07400    0.89600    0.72300    1.000
    Li7      Li       0.03300    0.52030    0.83170    1.000
    C31      C        0.61930    0.63580    0.83506    1.000
    H31      H        0.56130    0.64870    0.85750    1.000
    C32      C        0.67360    0.59740    0.75944    1.000
    C33      C        0.78650    0.61170    0.77277    1.000
    C34      C        0.81690    0.63290    0.82148    1.000
    C35      C        0.77360    0.57460    0.69623    1.000
    H32      H        0.79460    0.56140    0.66420    1.000
    N25      N        0.72610    0.64810    0.85201    1.000
    N26      N        0.58480    0.60810    0.79101    1.000
    N27      N        0.66550    0.57330    0.71104    1.000
    N28      N        0.84960    0.59660    0.73110    1.000
    O7       O        0.91790    0.63800    0.83735    1.000
    H33      H        0.69900    0.58700    0.86700    1.000
    H34      H        0.62100    0.50800    0.70200    1.000
    H35      H        0.92600    0.60400    0.72300    1.000
    Li8      Li       0.53300    0.02030    0.33170    1.000
    C36      C        0.11930    0.13580    0.33506    1.000
    H36      H        0.06130    0.14870    0.35750    1.000
    C37      C        0.17360    0.09740    0.25944    1.000
    C38      C        0.28650    0.11170    0.27277    1.000
    C39      C        0.31690    0.13290    0.32148    1.000
    C40      C        0.27360    0.07460    0.19623    1.000
    H37      H        0.29460    0.06140    0.16420    1.000
    N29      N        0.22610    0.14810    0.35201    1.000
    N30      N        0.08480    0.10810    0.29101    1.000
    N31      N        0.16550    0.07330    0.21104    1.000
    N32      N        0.34960    0.09660    0.23110    1.000
    O8       O        0.41790    0.13800    0.33735    1.000
    H38      H        0.19900    0.08700    0.36700    1.000
    H39      H        0.12100    0.00800    0.20200    1.000
    H40      H        0.42600    0.10400    0.22300    1.000
    Li9      Li       0.77030    0.71700    0.91830    1.000
    C41      C        0.88580    0.13070    0.91494    1.000
    H41      H        0.89870    0.18870    0.89250    1.000
    C42      C        0.84740    0.07640    0.99056    1.000
    C43      C        0.86170    0.96350    0.97723    1.000
    C44      C        0.88290    0.93310    0.92852    1.000
    C45      C        0.82460    0.97640    0.05377    1.000
    H42      H        0.81140    0.95540    0.08580    1.000
    N33      N        0.89810    0.02390    0.89799    1.000
    N34      N        0.85810    0.16520    0.95899    1.000
    N35      N        0.82330    0.08450    0.03896    1.000
    N36      N        0.84660    0.90040    0.01890    1.000
    O9       O        0.88800    0.83210    0.91265    1.000
    H43      H        0.83700    0.05100    0.88300    1.000
    H44      H        0.75800    0.12900    0.04800    1.000
    H45      H        0.85400    0.82400    0.02700    1.000
    Li10     Li       0.27030    0.21700    0.41830    1.000
    C46      C        0.38580    0.63070    0.41494    1.000
    H46      H        0.39870    0.68870    0.39250    1.000
    C47      C        0.34740    0.57640    0.49056    1.000
    C48      C        0.36170    0.46350    0.47723    1.000
    C49      C        0.38290    0.43310    0.42852    1.000
    C50      C        0.32460    0.47640    0.55377    1.000
    H47      H        0.31140    0.45540    0.58580    1.000
    N37      N        0.39810    0.52390    0.39799    1.000
    N38      N        0.35810    0.66520    0.45899    1.000
    N39      N        0.32330    0.58450    0.53896    1.000
    N40      N        0.34660    0.40040    0.51890    1.000
    O10      O        0.38800    0.33210    0.41265    1.000
    H48      H        0.33700    0.55100    0.38300    1.000
    H49      H        0.25800    0.62900    0.54800    1.000
    H50      H        0.35400    0.32400    0.52700    1.000
    Li11     Li       0.72970    0.28300    0.41830    1.000
    C51      C        0.61420    0.86930    0.41494    1.000
    H51      H        0.60130    0.81130    0.39250    1.000
    C52      C        0.65260    0.92360    0.49056    1.000
    C53      C        0.63830    0.03650    0.47723    1.000
    C54      C        0.61710    0.06690    0.42852    1.000
    C55      C        0.67540    0.02360    0.55377    1.000
    H52      H        0.68860    0.04460    0.58580    1.000
    N41      N        0.60190    0.97610    0.39799    1.000
    N42      N        0.64190    0.83480    0.45899    1.000
    N43      N        0.67670    0.91550    0.53896    1.000
    N44      N        0.65340    0.09960    0.51890    1.000
    O11      O        0.61200    0.16790    0.41265    1.000
    H53      H        0.66300    0.94900    0.38300    1.000
    H54      H        0.74200    0.87100    0.54800    1.000
    H55      H        0.64600    0.17600    0.52700    1.000
    Li12     Li       0.22970    0.78300    0.91830    1.000
    C56      C        0.11420    0.36930    0.91494    1.000
    H56      H        0.10130    0.31130    0.89250    1.000
    C57      C        0.15260    0.42360    0.99056    1.000
    C58      C        0.13830    0.53650    0.97723    1.000
    C59      C        0.11710    0.56690    0.92852    1.000
    C60      C        0.17540    0.52360    0.05377    1.000
    H57      H        0.18860    0.54460    0.08580    1.000
    N45      N        0.10190    0.47610    0.89799    1.000
    N46      N        0.14190    0.33480    0.95899    1.000
    N47      N        0.17670    0.41550    0.03896    1.000
    N48      N        0.15340    0.59960    0.01890    1.000
    O12      O        0.11200    0.66790    0.91265    1.000
    H58      H        0.16300    0.44900    0.88300    1.000
    H59      H        0.24200    0.37100    0.04800    1.000
    H60      H        0.14600    0.67600    0.02700    1.000
    Li13     Li       0.53300    0.52030    0.66830    1.000
    C61      C        0.11930    0.63580    0.66494    1.000
    H61      H        0.06130    0.64870    0.64250    1.000
    C62      C        0.17360    0.59740    0.74056    1.000
    C63      C        0.28650    0.61170    0.72723    1.000
    C64      C        0.31690    0.63290    0.67852    1.000
    C65      C        0.27360    0.57460    0.80377    1.000
    H62      H        0.29460    0.56140    0.83580    1.000
    N49      N        0.22610    0.64810    0.64799    1.000
    N50      N        0.08480    0.60810    0.70899    1.000
    N51      N        0.16550    0.57330    0.78896    1.000
    N52      N        0.34960    0.59660    0.76890    1.000
    O13      O        0.41790    0.63800    0.66265    1.000
    H63      H        0.19900    0.58700    0.63300    1.000
    H64      H        0.12100    0.50800    0.79800    1.000
    H65      H        0.42600    0.60400    0.77700    1.000
    Li14     Li       0.03300    0.02030    0.16830    1.000
    C66      C        0.61930    0.13580    0.16494    1.000
    H66      H        0.56130    0.14870    0.14250    1.000
    C67      C        0.67360    0.09740    0.24056    1.000
    C68      C        0.78650    0.11170    0.22723    1.000
    C69      C        0.81690    0.13290    0.17852    1.000
    C70      C        0.77360    0.07460    0.30377    1.000
    H67      H        0.79460    0.06140    0.33580    1.000
    N53      N        0.72610    0.14810    0.14799    1.000
    N54      N        0.58480    0.10810    0.20899    1.000
    N55      N        0.66550    0.07330    0.28896    1.000
    N56      N        0.84960    0.09660    0.26890    1.000
    O14      O        0.91790    0.13800    0.16265    1.000
    H68      H        0.69900    0.08700    0.13300    1.000
    H69      H        0.62100    0.00800    0.29800    1.000
    H70      H        0.92600    0.10400    0.27700    1.000
    Li15     Li       0.96700    0.47970    0.16830    1.000
    C71      C        0.38070    0.36420    0.16494    1.000
    H71      H        0.43870    0.35130    0.14250    1.000
    C72      C        0.32640    0.40260    0.24056    1.000
    C73      C        0.21350    0.38830    0.22723    1.000
    C74      C        0.18310    0.36710    0.17852    1.000
    C75      C        0.22640    0.42540    0.30377    1.000
    H72      H        0.20540    0.43860    0.33580    1.000
    N57      N        0.27390    0.35190    0.14799    1.000
    N58      N        0.41520    0.39190    0.20899    1.000
    N59      N        0.33450    0.42670    0.28896    1.000
    N60      N        0.15040    0.40340    0.26890    1.000
    O15      O        0.08210    0.36200    0.16265    1.000
    H73      H        0.30100    0.41300    0.13300    1.000
    H74      H        0.37900    0.49200    0.29800    1.000
    H75      H        0.07400    0.39600    0.27700    1.000
    Li16     Li       0.46700    0.97970    0.66830    1.000
    C76      C        0.88070    0.86420    0.66494    1.000
    H76      H        0.93870    0.85130    0.64250    1.000
    C77      C        0.82640    0.90260    0.74056    1.000
    C78      C        0.71350    0.88830    0.72723    1.000
    C79      C        0.68310    0.86710    0.67852    1.000
    C80      C        0.72640    0.92540    0.80377    1.000
    H77      H        0.70540    0.93860    0.83580    1.000
    N61      N        0.77390    0.85190    0.64799    1.000
    N62      N        0.91520    0.89190    0.70899    1.000
    N63      N        0.83450    0.92670    0.78896    1.000
    N64      N        0.65040    0.90340    0.76890    1.000
    O16      O        0.58210    0.86200    0.66265    1.000
    H78      H        0.80100    0.91300    0.63300    1.000
    H79      H        0.87900    0.99200    0.79800    1.000
    H80      H        0.57400    0.89600    0.77700    1.000
    Li17     Li       0.00000    0.25000    0.12500    1.000
    Li18     Li       0.50000    0.75000    0.62500    1.000
    Li19     Li       0.50000    0.25000    0.37500    1.000
    Li20     Li       0.00000    0.75000    0.87500    1.000
