# CIF file generated by openbabel 3.1.0, see https://openbabel.org
data_I
_chemical_name_common 'CAWDOU02_clean'
_cell_length_a 13.9077
_cell_length_b 16.4355
_cell_length_c 16.4355
_cell_angle_alpha 90
_cell_angle_beta 90
_cell_angle_gamma 90
_space_group_name_H-M_alt 'P 1'
_space_group_name_Hall 'P 1'
loop_
    _symmetry_equiv_pos_as_xyz
    x,y,z
loop_
    _atom_site_label
    _atom_site_type_symbol
    _atom_site_fract_x
    _atom_site_fract_y
    _atom_site_fract_z
    _atom_site_occupancy
    Cu1      Cu       0.50000    0.81739    0.81739    1.000
    Cu2      Cu       0.00000    0.18261    0.18261    1.000
    Cu3      Cu       0.25000    0.68261    0.31739    1.000
    Cu4      Cu       0.75000    0.31739    0.68261    1.000
    H1       H        0.61660    0.96790    0.78130    1.000
    H2       H        0.75110    0.00420    0.70990    1.000
    H3       H        0.77430    0.77420    0.63500    1.000
    H4       H        0.64240    0.74260    0.71080    1.000
    H5       H        0.22920    0.86000    0.37060    1.000
    H6       H        0.13050    0.93840    0.45020    1.000
    H7       H        0.97540    0.73930    0.49650    1.000
    H8       H        0.07910    0.66580    0.41860    1.000
    H9       H        0.11660    0.03210    0.21870    1.000
    H10      H        0.25110    0.99580    0.29010    1.000
    H11      H        0.27430    0.22580    0.36500    1.000
    H12      H        0.14240    0.25740    0.28920    1.000
    H13      H        0.72920    0.14000    0.62940    1.000
    H14      H        0.63050    0.06160    0.54980    1.000
    H15      H        0.47540    0.26070    0.50350    1.000
    H16      H        0.57910    0.33420    0.58140    1.000
    H17      H        0.36660    0.71870    0.46790    1.000
    H18      H        0.50110    0.79010    0.50420    1.000
    H19      H        0.52430    0.86500    0.27420    1.000
    H20      H        0.39240    0.78920    0.24260    1.000
    H21      H        0.97920    0.12940    0.36000    1.000
    H22      H        0.88050    0.04980    0.43840    1.000
    H23      H        0.72540    0.00350    0.23930    1.000
    H24      H        0.82910    0.08140    0.16580    1.000
    H25      H        0.86660    0.28130    0.53210    1.000
    H26      H        0.00110    0.20990    0.49580    1.000
    H27      H        0.02430    0.13500    0.72580    1.000
    H28      H        0.89240    0.21080    0.75740    1.000
    H29      H        0.47920    0.87060    0.64000    1.000
    H30      H        0.38050    0.95020    0.56160    1.000
    H31      H        0.22540    0.99650    0.76070    1.000
    H32      H        0.32910    0.91860    0.83420    1.000
    H33      H        0.13340    0.53210    0.28130    1.000
    H34      H        0.99890    0.49580    0.20990    1.000
    H35      H        0.97570    0.72580    0.13500    1.000
    H36      H        0.10760    0.75740    0.21080    1.000
    H37      H        0.52080    0.64000    0.87060    1.000
    H38      H        0.61950    0.56160    0.95020    1.000
    H39      H        0.77460    0.76070    0.99650    1.000
    H40      H        0.67090    0.83420    0.91860    1.000
    H41      H        0.63340    0.46790    0.71870    1.000
    H42      H        0.49890    0.50420    0.79010    1.000
    H43      H        0.47570    0.27420    0.86500    1.000
    H44      H        0.60760    0.24260    0.78920    1.000
    H45      H        0.02080    0.36000    0.12940    1.000
    H46      H        0.11950    0.43840    0.04980    1.000
    H47      H        0.27460    0.23930    0.00350    1.000
    H48      H        0.17090    0.16580    0.08140    1.000
    H49      H        0.38340    0.78130    0.96790    1.000
    H50      H        0.24890    0.70990    0.00420    1.000
    H51      H        0.22570    0.63500    0.77420    1.000
    H52      H        0.35760    0.71080    0.74260    1.000
    H53      H        0.77080    0.37060    0.86000    1.000
    H54      H        0.86950    0.45020    0.93840    1.000
    H55      H        0.02460    0.49650    0.73930    1.000
    H56      H        0.92090    0.41860    0.66580    1.000
    H57      H        0.88340    0.21870    0.03210    1.000
    H58      H        0.74890    0.29010    0.99580    1.000
    H59      H        0.72570    0.36500    0.22580    1.000
    H60      H        0.85760    0.28920    0.25740    1.000
    H61      H        0.27080    0.62940    0.14000    1.000
    H62      H        0.36950    0.54980    0.06160    1.000
    H63      H        0.52460    0.50350    0.26070    1.000
    H64      H        0.42090    0.58140    0.33420    1.000
    C1       C        0.64984    0.92824    0.75239    1.000
    C2       C        0.72963    0.95062    0.70907    1.000
    C3       C        0.77765    0.89270    0.66421    1.000
    C4       C        0.74368    0.81448    0.66516    1.000
    C5       C        0.66459    0.79598    0.71063    1.000
    C6       C        0.86237    0.91365    0.61570    1.000
    C7       C        0.97886    0.89365    0.53617    1.000
    C8       C        0.17775    0.83533    0.39693    1.000
    C9       C        0.11896    0.88298    0.44458    1.000
    C10      C        0.04187    0.84641    0.48418    1.000
    C11      C        0.02753    0.76505    0.47220    1.000
    C12      C        0.08950    0.72137    0.42470    1.000
    C13      C        0.14984    0.07176    0.24761    1.000
    C14      C        0.22963    0.04938    0.29093    1.000
    C15      C        0.27765    0.10730    0.33579    1.000
    C16      C        0.24368    0.18552    0.33484    1.000
    C17      C        0.16459    0.20402    0.28937    1.000
    C18      C        0.36237    0.08635    0.38430    1.000
    C19      C        0.47886    0.10635    0.46383    1.000
    C20      C        0.67775    0.16467    0.60307    1.000
    C21      C        0.61896    0.11702    0.55542    1.000
    C22      C        0.54187    0.15359    0.51582    1.000
    C23      C        0.52753    0.23495    0.52780    1.000
    C24      C        0.58950    0.27863    0.57530    1.000
    C25      C        0.39984    0.74761    0.42824    1.000
    C26      C        0.47963    0.79093    0.45062    1.000
    C27      C        0.52765    0.83579    0.39270    1.000
    C28      C        0.49368    0.83484    0.31448    1.000
    C29      C        0.41459    0.78937    0.29598    1.000
    C30      C        0.61237    0.88430    0.41365    1.000
    C31      C        0.72886    0.96383    0.39365    1.000
    C32      C        0.92775    0.10307    0.33533    1.000
    C33      C        0.86896    0.05542    0.38298    1.000
    C34      C        0.79187    0.01582    0.34641    1.000
    C35      C        0.77753    0.02780    0.26505    1.000
    C36      C        0.83950    0.07530    0.22137    1.000
    C37      C        0.89984    0.25239    0.57176    1.000
    C38      C        0.97963    0.20907    0.54938    1.000
    C39      C        0.02765    0.16421    0.60730    1.000
    C40      C        0.99368    0.16516    0.68552    1.000
    C41      C        0.91459    0.21063    0.70402    1.000
    C42      C        0.11237    0.11570    0.58635    1.000
    C43      C        0.22886    0.03617    0.60635    1.000
    C44      C        0.42775    0.89693    0.66467    1.000
    C45      C        0.36896    0.94458    0.61702    1.000
    C46      C        0.29187    0.98418    0.65359    1.000
    C47      C        0.27753    0.97220    0.73495    1.000
    C48      C        0.33950    0.92470    0.77863    1.000
    C49      C        0.10016    0.57176    0.25239    1.000
    C50      C        0.02037    0.54938    0.20907    1.000
    C51      C        0.97235    0.60730    0.16421    1.000
    C52      C        0.00632    0.68552    0.16516    1.000
    C53      C        0.08541    0.70402    0.21063    1.000
    C54      C        0.88763    0.58635    0.11570    1.000
    C55      C        0.77114    0.60635    0.03617    1.000
    C56      C        0.57225    0.66467    0.89693    1.000
    C57      C        0.63104    0.61702    0.94458    1.000
    C58      C        0.70813    0.65359    0.98418    1.000
    C59      C        0.72247    0.73495    0.97220    1.000
    C60      C        0.66050    0.77863    0.92470    1.000
    C61      C        0.60016    0.42824    0.74761    1.000
    C62      C        0.52037    0.45062    0.79093    1.000
    C63      C        0.47235    0.39270    0.83579    1.000
    C64      C        0.50632    0.31448    0.83484    1.000
    C65      C        0.58541    0.29598    0.78937    1.000
    C66      C        0.38763    0.41365    0.88430    1.000
    C67      C        0.27114    0.39365    0.96383    1.000
    C68      C        0.07225    0.33533    0.10307    1.000
    C69      C        0.13104    0.38298    0.05542    1.000
    C70      C        0.20813    0.34641    0.01582    1.000
    C71      C        0.22247    0.26505    0.02780    1.000
    C72      C        0.16050    0.22137    0.07530    1.000
    C73      C        0.35016    0.75239    0.92824    1.000
    C74      C        0.27037    0.70907    0.95062    1.000
    C75      C        0.22235    0.66421    0.89270    1.000
    C76      C        0.25632    0.66516    0.81448    1.000
    C77      C        0.33541    0.71063    0.79598    1.000
    C78      C        0.13763    0.61570    0.91365    1.000
    C79      C        0.02114    0.53617    0.89365    1.000
    C80      C        0.82225    0.39693    0.83533    1.000
    C81      C        0.88104    0.44458    0.88298    1.000
    C82      C        0.95813    0.48418    0.84641    1.000
    C83      C        0.97247    0.47220    0.76505    1.000
    C84      C        0.91050    0.42470    0.72137    1.000
    C85      C        0.85016    0.24761    0.07176    1.000
    C86      C        0.77037    0.29093    0.04938    1.000
    C87      C        0.72235    0.33579    0.10730    1.000
    C88      C        0.75632    0.33484    0.18552    1.000
    C89      C        0.83541    0.28937    0.20402    1.000
    C90      C        0.63763    0.38430    0.08635    1.000
    C91      C        0.52114    0.46383    0.10635    1.000
    C92      C        0.32225    0.60307    0.16467    1.000
    C93      C        0.38104    0.55542    0.11702    1.000
    C94      C        0.45813    0.51582    0.15359    1.000
    C95      C        0.47247    0.52780    0.23495    1.000
    C96      C        0.41050    0.57530    0.27863    1.000
    N1       N        0.61770    0.85134    0.75481    1.000
    N2       N        0.90454    0.98259    0.60882    1.000
    N3       N        0.98208    0.96985    0.55522    1.000
    N4       N        0.16479    0.75546    0.38654    1.000
    N5       N        0.11770    0.14866    0.24519    1.000
    N6       N        0.40454    0.01741    0.39118    1.000
    N7       N        0.48208    0.03015    0.44478    1.000
    N8       N        0.66479    0.24454    0.61346    1.000
    N9       N        0.36770    0.74519    0.35134    1.000
    N10      N        0.65454    0.89118    0.48259    1.000
    N11      N        0.73208    0.94478    0.46985    1.000
    N12      N        0.91479    0.11346    0.25546    1.000
    N13      N        0.86770    0.25481    0.64866    1.000
    N14      N        0.15454    0.10882    0.51741    1.000
    N15      N        0.23208    0.05522    0.53015    1.000
    N16      N        0.41479    0.88654    0.74454    1.000
    N17      N        0.13230    0.64866    0.25481    1.000
    N18      N        0.84546    0.51741    0.10882    1.000
    N19      N        0.76792    0.53015    0.05522    1.000
    N20      N        0.58521    0.74454    0.88654    1.000
    N21      N        0.63230    0.35134    0.74519    1.000
    N22      N        0.34546    0.48259    0.89118    1.000
    N23      N        0.26792    0.46985    0.94478    1.000
    N24      N        0.08521    0.25546    0.11346    1.000
    N25      N        0.38230    0.75481    0.85134    1.000
    N26      N        0.09546    0.60882    0.98259    1.000
    N27      N        0.01792    0.55522    0.96985    1.000
    N28      N        0.83521    0.38654    0.75546    1.000
    N29      N        0.88230    0.24519    0.14866    1.000
    N30      N        0.59546    0.39118    0.01741    1.000
    N31      N        0.51792    0.44478    0.03015    1.000
    N32      N        0.33521    0.61346    0.24454    1.000
    O1       O        0.90366    0.85382    0.57143    1.000
    O2       O        0.40366    0.14618    0.42857    1.000
    O3       O        0.65366    0.92857    0.35382    1.000
    O4       O        0.15366    0.07143    0.64618    1.000
    O5       O        0.84634    0.64618    0.07143    1.000
    O6       O        0.34634    0.35382    0.92857    1.000
    O7       O        0.09634    0.57143    0.85382    1.000
    O8       O        0.59634    0.42857    0.14618    1.000
