# CIF file generated by openbabel 3.1.0, see https://openbabel.org
data_I
_chemical_name_common 'image0'
_cell_length_a 17.8729
_cell_length_b 8.7298
_cell_length_c 22.7524
_cell_angle_alpha 90
_cell_angle_beta 96.072
_cell_angle_gamma 90
_space_group_name_H-M_alt 'P 1'
_space_group_name_Hall 'P 1'
loop_
    _symmetry_equiv_pos_as_xyz
    x,y,z
loop_
    _atom_site_label
    _atom_site_type_symbol
    _atom_site_fract_x
    _atom_site_fract_y
    _atom_site_fract_z
    _atom_site_occupancy
    Cu1      Cu       0.56745    0.03755    0.75520    1.000
    N1       N        0.63300    0.96500    0.68880    1.000
    N2       N        0.75010    0.75550    0.51665    1.000
    H1       H        0.70290    0.77360    0.50780    1.000
    N3       N        0.64930    0.51490    0.32595    1.000
    N4       N        0.92570    0.85530    0.68580    1.000
    N5       N        0.93640    0.49850    0.41660    1.000
    N6       N        0.49840    0.35500    0.74230    1.000
    C1       C        0.68900    0.05350    0.67370    1.000
    H2       H        0.69340    0.15190    0.68940    1.000
    C2       C        0.74080    0.00680    0.63600    1.000
    H3       H        0.77930    0.07170    0.62710    1.000
    C3       C        0.73380    0.86250    0.61210    1.000
    C4       C        0.67540    0.76960    0.62660    1.000
    H4       H        0.66890    0.67210    0.61050    1.000
    C5       C        0.62710    0.82460    0.66550    1.000
    H5       H        0.58890    0.76090    0.67580    1.000
    C6       C        0.78550    0.80370    0.57000    1.000
    C7       C        0.86020    0.79300    0.58260    1.000
    C8       C        0.91300    0.73970    0.53760    1.000
    H6       H        0.94810    0.66390    0.55660    1.000
    C9       C        0.86500    0.66280    0.48670    1.000
    C10      C        0.78970    0.67860    0.47730    1.000
    C11      C        0.70910    0.60140    0.32060    1.000
    H7       H        0.71960    0.62780    0.28270    1.000
    C12      C        0.75720    0.65500    0.36800    1.000
    H8       H        0.79860    0.71520    0.36190    1.000
    C13      C        0.74200    0.61680    0.42490    1.000
    C14      C        0.67980    0.52530    0.43140    1.000
    H9       H        0.66780    0.49850    0.46890    1.000
    C15      C        0.63600    0.47460    0.38150    1.000
    H10      H        0.59560    0.41010    0.38610    1.000
    C16      C        0.89540    0.82920    0.64020    1.000
    C17      C        0.90310    0.57050    0.44730    1.000
    C18      C        0.95810    0.87460    0.51710    1.000
    C19      C        0.92450    0.98310    0.47880    1.000
    H11      H        0.87410    0.97300    0.46440    1.000
    C20      C        0.96620    0.10860    0.46150    1.000
    H12      H        0.94320    0.18110    0.43560    1.000
    C21      C        0.52760    0.23690    0.74780    1.000
    Cu2      Cu       0.43255    0.53755    0.74480    1.000
    N7       N        0.36700    0.46500    0.81120    1.000
    N8       N        0.24990    0.25550    0.98335    1.000
    H13      H        0.29710    0.27360    0.99220    1.000
    N9       N        0.35070    0.01490    0.17405    1.000
    N10      N        0.07430    0.35530    0.81420    1.000
    N11      N        0.06360    0.99850    0.08340    1.000
    N12      N        0.50160    0.85500    0.75770    1.000
    C22      C        0.31100    0.55350    0.82630    1.000
    H14      H        0.30660    0.65190    0.81060    1.000
    C23      C        0.25920    0.50680    0.86400    1.000
    H15      H        0.22070    0.57170    0.87290    1.000
    C24      C        0.26620    0.36250    0.88790    1.000
    C25      C        0.32460    0.26960    0.87340    1.000
    H16      H        0.33110    0.17210    0.88950    1.000
    C26      C        0.37290    0.32460    0.83450    1.000
    H17      H        0.41110    0.26090    0.82420    1.000
    C27      C        0.21450    0.30370    0.93000    1.000
    C28      C        0.13980    0.29300    0.91740    1.000
    C29      C        0.08700    0.23970    0.96240    1.000
    H18      H        0.05190    0.16390    0.94340    1.000
    C30      C        0.13500    0.16280    0.01330    1.000
    C31      C        0.21030    0.17860    0.02270    1.000
    C32      C        0.29090    0.10140    0.17940    1.000
    H19      H        0.28040    0.12780    0.21730    1.000
    C33      C        0.24280    0.15500    0.13200    1.000
    H20      H        0.20140    0.21520    0.13810    1.000
    C34      C        0.25800    0.11680    0.07510    1.000
    C35      C        0.32020    0.02530    0.06860    1.000
    H21      H        0.33220    0.99850    0.03110    1.000
    C36      C        0.36400    0.97460    0.11850    1.000
    H22      H        0.40440    0.91010    0.11390    1.000
    C37      C        0.10460    0.32920    0.85980    1.000
    C38      C        0.09690    0.07050    0.05270    1.000
    C39      C        0.04190    0.37460    0.98290    1.000
    C40      C        0.07550    0.48310    0.02120    1.000
    H23      H        0.12590    0.47300    0.03560    1.000
    C41      C        0.03380    0.60860    0.03850    1.000
    H24      H        0.05680    0.68110    0.06440    1.000
    C42      C        0.47240    0.73690    0.75220    1.000
    Cu3      Cu       0.43255    0.96245    0.24480    1.000
    N13      N        0.36700    0.03500    0.31120    1.000
    N14      N        0.24990    0.24450    0.48335    1.000
    H25      H        0.29710    0.22640    0.49220    1.000
    N15      N        0.35070    0.48510    0.67405    1.000
    N16      N        0.07430    0.14470    0.31420    1.000
    N17      N        0.06360    0.50150    0.58340    1.000
    N18      N        0.50160    0.64500    0.25770    1.000
    C43      C        0.31100    0.94650    0.32630    1.000
    H26      H        0.30660    0.84810    0.31060    1.000
    C44      C        0.25920    0.99320    0.36400    1.000
    H27      H        0.22070    0.92830    0.37290    1.000
    C45      C        0.26620    0.13750    0.38790    1.000
    C46      C        0.32460    0.23040    0.37340    1.000
    H28      H        0.33110    0.32790    0.38950    1.000
    C47      C        0.37290    0.17540    0.33450    1.000
    H29      H        0.41110    0.23910    0.32420    1.000
    C48      C        0.21450    0.19630    0.43000    1.000
    C49      C        0.13980    0.20700    0.41740    1.000
    C50      C        0.08700    0.26030    0.46240    1.000
    H30      H        0.05190    0.33610    0.44340    1.000
    C51      C        0.13500    0.33720    0.51330    1.000
    C52      C        0.21030    0.32140    0.52270    1.000
    C53      C        0.29090    0.39860    0.67940    1.000
    H31      H        0.28040    0.37220    0.71730    1.000
    C54      C        0.24280    0.34500    0.63200    1.000
    H32      H        0.20140    0.28480    0.63810    1.000
    C55      C        0.25800    0.38320    0.57510    1.000
    C56      C        0.32020    0.47470    0.56860    1.000
    H33      H        0.33220    0.50150    0.53110    1.000
    C57      C        0.36400    0.52540    0.61850    1.000
    H34      H        0.40440    0.58990    0.61390    1.000
    C58      C        0.10460    0.17080    0.35980    1.000
    C59      C        0.09690    0.42950    0.55270    1.000
    C60      C        0.04190    0.12540    0.48290    1.000
    C61      C        0.07550    0.01690    0.52120    1.000
    H35      H        0.12590    0.02700    0.53560    1.000
    C62      C        0.03380    0.89140    0.53850    1.000
    H36      H        0.05680    0.81890    0.56440    1.000
    C63      C        0.47240    0.76310    0.25220    1.000
    Cu4      Cu       0.56745    0.46245    0.25520    1.000
    N19      N        0.63300    0.53500    0.18880    1.000
    N20      N        0.75010    0.74450    0.01665    1.000
    H37      H        0.70290    0.72640    0.00780    1.000
    N21      N        0.64930    0.98510    0.82595    1.000
    N22      N        0.92570    0.64470    0.18580    1.000
    N23      N        0.93640    0.00150    0.91660    1.000
    N24      N        0.49840    0.14500    0.24230    1.000
    C64      C        0.68900    0.44650    0.17370    1.000
    H38      H        0.69340    0.34810    0.18940    1.000
    C65      C        0.74080    0.49320    0.13600    1.000
    H39      H        0.77930    0.42830    0.12710    1.000
    C66      C        0.73380    0.63750    0.11210    1.000
    C67      C        0.67540    0.73040    0.12660    1.000
    H40      H        0.66890    0.82790    0.11050    1.000
    C68      C        0.62710    0.67540    0.16550    1.000
    H41      H        0.58890    0.73910    0.17580    1.000
    C69      C        0.78550    0.69630    0.07000    1.000
    C70      C        0.86020    0.70700    0.08260    1.000
    C71      C        0.91300    0.76030    0.03760    1.000
    H42      H        0.94810    0.83610    0.05660    1.000
    C72      C        0.86500    0.83720    0.98670    1.000
    C73      C        0.78970    0.82140    0.97730    1.000
    C74      C        0.70910    0.89860    0.82060    1.000
    H43      H        0.71960    0.87220    0.78270    1.000
    C75      C        0.75720    0.84500    0.86800    1.000
    H44      H        0.79860    0.78480    0.86190    1.000
    C76      C        0.74200    0.88320    0.92490    1.000
    C77      C        0.67980    0.97470    0.93140    1.000
    H45      H        0.66780    0.00150    0.96890    1.000
    C78      C        0.63600    0.02540    0.88150    1.000
    H46      H        0.59560    0.08990    0.88610    1.000
    C79      C        0.89540    0.67080    0.14020    1.000
    C80      C        0.90310    0.92950    0.94730    1.000
    C81      C        0.95810    0.62540    0.01710    1.000
    C82      C        0.92450    0.51690    0.97880    1.000
    H47      H        0.87410    0.52700    0.96440    1.000
    C83      C        0.96620    0.39140    0.96150    1.000
    H48      H        0.94320    0.31890    0.93560    1.000
    C84      C        0.52760    0.26310    0.24780    1.000
