# CIF file generated by openbabel 3.1.0, see https://openbabel.org
data_I
_chemical_name_common 'image0'
_cell_length_a 8.6061
_cell_length_b 9.3656
_cell_length_c 13.016
_cell_angle_alpha 90
_cell_angle_beta 105.803
_cell_angle_gamma 90
_space_group_name_H-M_alt 'P 1'
_space_group_name_Hall 'P 1'
loop_
    _symmetry_equiv_pos_as_xyz
    x,y,z
loop_
    _atom_site_label
    _atom_site_type_symbol
    _atom_site_fract_x
    _atom_site_fract_y
    _atom_site_fract_z
    _atom_site_occupancy
    Cd1      Cd       0.24515    0.25160    0.99082    1.000
    N1       N        0.16680    0.19740    0.80690    1.000
    N2       N        0.23240    0.19470    0.73929    1.000
    N3       N        0.29690    0.18580    0.67150    1.000
    N4       N        0.01220    0.12470    0.99630    1.000
    N5       N        0.46820    0.37970    0.97960    1.000
    N6       N        0.39460    0.04430    0.03230    1.000
    N7       N        0.07190    0.44860    0.94390    1.000
    Cd2      Cd       0.75485    0.75160    0.50918    1.000
    N8       N        0.83320    0.69740    0.69310    1.000
    N9       N        0.76760    0.69470    0.76071    1.000
    N10      N        0.70310    0.68580    0.82850    1.000
    N11      N        0.98780    0.62470    0.50370    1.000
    N12      N        0.53180    0.87970    0.52040    1.000
    N13      N        0.60540    0.54430    0.46770    1.000
    N14      N        0.92810    0.94860    0.55610    1.000
    Cd3      Cd       0.75485    0.74840    0.00918    1.000
    N15      N        0.83320    0.80260    0.19310    1.000
    N16      N        0.76760    0.80530    0.26071    1.000
    N17      N        0.70310    0.81420    0.32850    1.000
    N18      N        0.98780    0.87530    0.00370    1.000
    N19      N        0.53180    0.62030    0.02040    1.000
    N20      N        0.60540    0.95570    0.96770    1.000
    N21      N        0.92810    0.55140    0.05610    1.000
    Cd4      Cd       0.24515    0.24840    0.49082    1.000
    N22      N        0.16680    0.30260    0.30690    1.000
    N23      N        0.23240    0.30530    0.23929    1.000
    N24      N        0.29690    0.31420    0.17150    1.000
    N25      N        0.01220    0.37530    0.49630    1.000
    N26      N        0.46820    0.12030    0.47960    1.000
    N27      N        0.39460    0.45570    0.53230    1.000
    N28      N        0.07190    0.05140    0.44390    1.000
    N29      N        0.00000    0.00000    0.00000    1.000
    N30      N        0.00000    0.50000    0.50000    1.000
    N31      N        0.50000    0.50000    0.00000    1.000
    N32      N        0.50000    0.00000    0.50000    1.000
    N33      N        0.50000    0.00000    0.00000    1.000
    N34      N        0.50000    0.50000    0.50000    1.000
    N35      N        0.00000    0.50000    0.00000    1.000
    N36      N        0.00000    0.00000    0.50000    1.000
