# CIF file generated by openbabel 3.1.0, see https://openbabel.org
data_I
_chemical_name_common 'image0'
_cell_length_a 18.74
_cell_length_b 18.74
_cell_length_c 9.439
_cell_angle_alpha 90
_cell_angle_beta 90
_cell_angle_gamma 90
_space_group_name_H-M_alt 'P 1'
_space_group_name_Hall 'P 1'
loop_
    _symmetry_equiv_pos_as_xyz
    x,y,z
loop_
    _atom_site_label
    _atom_site_type_symbol
    _atom_site_fract_x
    _atom_site_fract_y
    _atom_site_fract_z
    _atom_site_occupancy
    Al1      Al       0.06610    0.55131    0.33500    1.000
    O1       O        0.06020    0.62780    0.23960    1.000
    O2       O        0.08030    0.57450    0.50580    1.000
    O3       O        0.13700    0.50020    0.28240    1.000
    O4       O        0.98710    0.50510    0.31980    1.000
    P1       P        0.06750    0.66610    0.09240    1.000
    Al2      Al       0.95474    0.66417    0.84290    1.000
    O5       O        0.99920    0.65440    0.00600    1.000
    O6       O        0.00970    0.63060    0.70910    1.000
    O7       O        0.87350    0.62140    0.84450    1.000
    O8       O        0.93610    0.75240    0.80860    1.000
    P2       P        0.16630    0.45100    0.15960    1.000
    Al3      Al       0.16560    0.56600    0.91670    1.000
    O9       O        0.15600    0.48730    0.01140    1.000
    O10      O        0.13320    0.63650    0.00960    1.000
    O11      O        0.12340    0.55990    0.75690    1.000
    O12      O        0.08000    0.74700    0.12550    1.000
    P3       P        0.05544    0.56510    0.66390    1.000
    Al4      Al       0.43390    0.94869    0.33500    1.000
    O13      O        0.43980    0.87220    0.23960    1.000
    O14      O        0.41970    0.92550    0.50580    1.000
    O15      O        0.36300    0.99980    0.28240    1.000
    O16      O        0.51290    0.99490    0.31980    1.000
    P4       P        0.43250    0.83390    0.09240    1.000
    Al5      Al       0.54526    0.83583    0.84290    1.000
    O17      O        0.50080    0.84560    0.00600    1.000
    O18      O        0.49030    0.86940    0.70910    1.000
    O19      O        0.62650    0.87860    0.84450    1.000
    O20      O        0.56390    0.74760    0.80860    1.000
    P5       P        0.33370    0.04900    0.15960    1.000
    Al6      Al       0.33440    0.93400    0.91670    1.000
    O21      O        0.34400    0.01270    0.01140    1.000
    O22      O        0.36680    0.86350    0.00960    1.000
    O23      O        0.37660    0.94010    0.75690    1.000
    O24      O        0.42000    0.75300    0.12550    1.000
    P6       P        0.44456    0.93490    0.66390    1.000
    Al7      Al       0.94869    0.06610    0.33500    1.000
    O25      O        0.87220    0.06020    0.23960    1.000
    O26      O        0.92550    0.08030    0.50580    1.000
    O27      O        0.99980    0.13700    0.28240    1.000
    O28      O        0.99490    0.98710    0.31980    1.000
    P7       P        0.83390    0.06750    0.09240    1.000
    Al8      Al       0.83583    0.95474    0.84290    1.000
    O29      O        0.84560    0.99920    0.00600    1.000
    O30      O        0.86940    0.00970    0.70910    1.000
    O31      O        0.87860    0.87350    0.84450    1.000
    O32      O        0.74760    0.93610    0.80860    1.000
    P8       P        0.04900    0.16630    0.15960    1.000
    Al9      Al       0.93400    0.16560    0.91670    1.000
    O33      O        0.01270    0.15600    0.01140    1.000
    O34      O        0.86350    0.13320    0.00960    1.000
    O35      O        0.94010    0.12340    0.75690    1.000
    O36      O        0.75300    0.08000    0.12550    1.000
    P9       P        0.93490    0.05544    0.66390    1.000
    Al10     Al       0.55131    0.43390    0.33500    1.000
    O37      O        0.62780    0.43980    0.23960    1.000
    O38      O        0.57450    0.41970    0.50580    1.000
    O39      O        0.50020    0.36300    0.28240    1.000
    O40      O        0.50510    0.51290    0.31980    1.000
    P10      P        0.66610    0.43250    0.09240    1.000
    Al11     Al       0.66417    0.54526    0.84290    1.000
    O41      O        0.65440    0.50080    0.00600    1.000
    O42      O        0.63060    0.49030    0.70910    1.000
    O43      O        0.62140    0.62650    0.84450    1.000
    O44      O        0.75240    0.56390    0.80860    1.000
    P11      P        0.45100    0.33370    0.15960    1.000
    Al12     Al       0.56600    0.33440    0.91670    1.000
    O45      O        0.48730    0.34400    0.01140    1.000
    O46      O        0.63650    0.36680    0.00960    1.000
    O47      O        0.55990    0.37660    0.75690    1.000
    O48      O        0.74700    0.42000    0.12550    1.000
    P12      P        0.56510    0.44456    0.66390    1.000
    Al13     Al       0.93390    0.44869    0.66500    1.000
    O49      O        0.93980    0.37220    0.76040    1.000
    O50      O        0.91970    0.42550    0.49420    1.000
    O51      O        0.86300    0.49980    0.71760    1.000
    O52      O        0.01290    0.49490    0.68020    1.000
    P13      P        0.93250    0.33390    0.90760    1.000
    Al14     Al       0.04526    0.33583    0.15710    1.000
    O53      O        0.00080    0.34560    0.99400    1.000
    O54      O        0.99030    0.36940    0.29090    1.000
    O55      O        0.12650    0.37860    0.15550    1.000
    O56      O        0.06390    0.24760    0.19140    1.000
    P14      P        0.83370    0.54900    0.84040    1.000
    Al15     Al       0.83440    0.43400    0.08330    1.000
    O57      O        0.84400    0.51270    0.98860    1.000
    O58      O        0.86680    0.36350    0.99040    1.000
    O59      O        0.87660    0.44010    0.24310    1.000
    O60      O        0.92000    0.25300    0.87450    1.000
    P15      P        0.94456    0.43490    0.33610    1.000
    Al16     Al       0.56610    0.05131    0.66500    1.000
    O61      O        0.56020    0.12780    0.76040    1.000
    O62      O        0.58030    0.07450    0.49420    1.000
    O63      O        0.63700    0.00020    0.71760    1.000
    O64      O        0.48710    0.00510    0.68020    1.000
    P16      P        0.56750    0.16610    0.90760    1.000
    Al17     Al       0.45474    0.16417    0.15710    1.000
    O65      O        0.49920    0.15440    0.99400    1.000
    O66      O        0.50970    0.13060    0.29090    1.000
    O67      O        0.37350    0.12140    0.15550    1.000
    O68      O        0.43610    0.25240    0.19140    1.000
    P17      P        0.66630    0.95100    0.84040    1.000
    Al18     Al       0.66560    0.06600    0.08330    1.000
    O69      O        0.65600    0.98730    0.98860    1.000
    O70      O        0.63320    0.13650    0.99040    1.000
    O71      O        0.62340    0.05990    0.24310    1.000
    O72      O        0.58000    0.24700    0.87450    1.000
    P18      P        0.55544    0.06510    0.33610    1.000
    Al19     Al       0.05131    0.93390    0.66500    1.000
    O73      O        0.12780    0.93980    0.76040    1.000
    O74      O        0.07450    0.91970    0.49420    1.000
    O75      O        0.00020    0.86300    0.71760    1.000
    O76      O        0.00510    0.01290    0.68020    1.000
    P19      P        0.16610    0.93250    0.90760    1.000
    Al20     Al       0.16417    0.04526    0.15710    1.000
    O77      O        0.15440    0.00080    0.99400    1.000
    O78      O        0.13060    0.99030    0.29090    1.000
    O79      O        0.12140    0.12650    0.15550    1.000
    O80      O        0.25240    0.06390    0.19140    1.000
    P20      P        0.95100    0.83370    0.84040    1.000
    Al21     Al       0.06600    0.83440    0.08330    1.000
    O81      O        0.98730    0.84400    0.98860    1.000
    O82      O        0.13650    0.86680    0.99040    1.000
    O83      O        0.05990    0.87660    0.24310    1.000
    O84      O        0.24700    0.92000    0.87450    1.000
    P21      P        0.06510    0.94456    0.33610    1.000
    Al22     Al       0.44869    0.56610    0.66500    1.000
    O85      O        0.37220    0.56020    0.76040    1.000
    O86      O        0.42550    0.58030    0.49420    1.000
    O87      O        0.49980    0.63700    0.71760    1.000
    O88      O        0.49490    0.48710    0.68020    1.000
    P22      P        0.33390    0.56750    0.90760    1.000
    Al23     Al       0.33583    0.45474    0.15710    1.000
    O89      O        0.34560    0.49920    0.99400    1.000
    O90      O        0.36940    0.50970    0.29090    1.000
    O91      O        0.37860    0.37350    0.15550    1.000
    O92      O        0.24760    0.43610    0.19140    1.000
    P23      P        0.54900    0.66630    0.84040    1.000
    Al24     Al       0.43400    0.66560    0.08330    1.000
    O93      O        0.51270    0.65600    0.98860    1.000
    O94      O        0.36350    0.63320    0.99040    1.000
    O95      O        0.44010    0.62340    0.24310    1.000
    O96      O        0.25300    0.58000    0.87450    1.000
    P24      P        0.43490    0.55544    0.33610    1.000
