# CIF file generated by openbabel 3.1.0, see https://openbabel.org
data_I
_chemical_name_common 'image0'
_cell_length_a 8.7167
_cell_length_b 9.752
_cell_length_c 13.8642
_cell_angle_alpha 84.03
_cell_angle_beta 79.446
_cell_angle_gamma 73.029
_space_group_name_H-M_alt 'P 1'
_space_group_name_Hall 'P 1'
loop_
    _symmetry_equiv_pos_as_xyz
    x,y,z
loop_
    _atom_site_label
    _atom_site_type_symbol
    _atom_site_fract_x
    _atom_site_fract_y
    _atom_site_fract_z
    _atom_site_occupancy
    C1       C        0.00780    0.63110    0.92020    1.000
    H1       H        0.99410    0.69730    0.96880    1.000
    C2       C        0.86910    0.61990    0.88870    1.000
    C3       C        0.89210    0.52730    0.81400    1.000
    H2       H        0.80160    0.52020    0.78780    1.000
    C4       C        0.04730    0.44560    0.77800    1.000
    C5       C        0.17730    0.46080    0.81710    1.000
    H3       H        0.28350    0.40280    0.79410    1.000
    C6       C        0.07500    0.34620    0.69620    1.000
    C7       C        0.92980    0.93510    0.10770    1.000
    H4       H        0.94790    0.86960    0.05800    1.000
    C8       C        0.06340    0.94250    0.14620    1.000
    C9       C        0.03320    0.03730    0.22110    1.000
    H5       H        0.11970    0.04390    0.25160    1.000
    C10      C        0.87550    0.12190    0.25060    1.000
    C11      C        0.75210    0.10750    0.20560    1.000
    H6       H        0.64500    0.16650    0.22510    1.000
    C12      C        0.83060    0.21950    0.33500    1.000
    Co1      Co       0.36193    0.58415    0.93975    1.000
    Co2      Co       0.57720    0.97889    0.08848    1.000
    Co3      Co       0.93989    0.27548    0.52239    1.000
    N1       N        0.15910    0.55410    0.88600    1.000
    N2       N        0.77620    0.01470    0.13630    1.000
    O1       O        0.58310    0.82210    0.87347    1.000
    O2       O        0.70430    0.78500    0.03276    1.000
    O3       O        0.57930    0.60230    0.98241    1.000
    O4       O        0.96370    0.37550    0.64387    1.000
    O5       O        0.20270    0.24410    0.68421    1.000
    O6       O        0.33030    0.74200    0.19089    1.000
    O7       O        0.23360    0.73620    0.02807    1.000
    O8       O        0.36800    0.92650    0.05397    1.000
    O9       O        0.71240    0.32870    0.33533    1.000
    O10      O        0.91610    0.17600    0.40300    1.000
    P1       P        0.67010    0.71806    0.94862    1.000
    P2       P        0.26487    0.82752    0.10086    1.000
    C13      C        0.99220    0.36890    0.07980    1.000
    H7       H        0.00590    0.30270    0.03120    1.000
    C14      C        0.13090    0.38010    0.11130    1.000
    C15      C        0.10790    0.47270    0.18600    1.000
    H8       H        0.19840    0.47980    0.21220    1.000
    C16      C        0.95270    0.55440    0.22200    1.000
    C17      C        0.82270    0.53920    0.18290    1.000
    H9       H        0.71650    0.59720    0.20590    1.000
    C18      C        0.92500    0.65380    0.30380    1.000
    C19      C        0.07020    0.06490    0.89230    1.000
    H10      H        0.05210    0.13040    0.94200    1.000
    C20      C        0.93660    0.05750    0.85380    1.000
    C21      C        0.96680    0.96270    0.77890    1.000
    H11      H        0.88030    0.95610    0.74840    1.000
    C22      C        0.12450    0.87810    0.74940    1.000
    C23      C        0.24790    0.89250    0.79440    1.000
    H12      H        0.35500    0.83350    0.77490    1.000
    C24      C        0.16940    0.78050    0.66500    1.000
    Co4      Co       0.63807    0.41585    0.06025    1.000
    Co5      Co       0.42280    0.02111    0.91152    1.000
    Co6      Co       0.06011    0.72452    0.47761    1.000
    N3       N        0.84090    0.44590    0.11400    1.000
    N4       N        0.22380    0.98530    0.86370    1.000
    O11      O        0.41690    0.17790    0.12653    1.000
    O12      O        0.29570    0.21500    0.96724    1.000
    O13      O        0.42070    0.39770    0.01759    1.000
    O14      O        0.03630    0.62450    0.35613    1.000
    O15      O        0.79730    0.75590    0.31579    1.000
    O16      O        0.66970    0.25800    0.80911    1.000
    O17      O        0.76640    0.26380    0.97193    1.000
    O18      O        0.63200    0.07350    0.94603    1.000
    O19      O        0.28760    0.67130    0.66467    1.000
    O20      O        0.08390    0.82400    0.59700    1.000
    P3       P        0.32990    0.28194    0.05138    1.000
    P4       P        0.73513    0.17248    0.89914    1.000
