# CIF file generated by openbabel 3.1.0, see https://openbabel.org
data_I
_chemical_name_common 'image0'
_cell_length_a 10.4772
_cell_length_b 15.6753
_cell_length_c 12.7708
_cell_angle_alpha 90
_cell_angle_beta 102.047
_cell_angle_gamma 90
_space_group_name_H-M_alt 'P 1'
_space_group_name_Hall 'P 1'
loop_
    _symmetry_equiv_pos_as_xyz
    x,y,z
loop_
    _atom_site_label
    _atom_site_type_symbol
    _atom_site_fract_x
    _atom_site_fract_y
    _atom_site_fract_z
    _atom_site_occupancy
    O1       O        0.85590    0.59646    0.21667    1.000
    O2       O        0.53380    0.84912    0.14790    1.000
    O3       O        0.95520    0.56145    0.08725    1.000
    O4       O        0.67590    0.94826    0.14020    1.000
    C1       C        0.87750    0.60882    0.12340    1.000
    C2       C        0.69400    0.81369    0.05260    1.000
    C3       C        0.81020    0.68004    0.05720    1.000
    C4       C        0.75280    0.74326    0.10760    1.000
    C5       C        0.63170    0.87610    0.11560    1.000
    H1       H        0.75394    0.73803    0.18272    1.000
    O5       O        0.35590    0.09646    0.21667    1.000
    O6       O        0.03380    0.34912    0.14790    1.000
    O7       O        0.45520    0.06145    0.08725    1.000
    O8       O        0.17590    0.44826    0.14020    1.000
    C6       C        0.37750    0.10882    0.12340    1.000
    C7       C        0.19400    0.31369    0.05260    1.000
    C8       C        0.31020    0.18004    0.05720    1.000
    C9       C        0.25280    0.24326    0.10760    1.000
    C10      C        0.13170    0.37610    0.11560    1.000
    H2       H        0.25394    0.23803    0.18272    1.000
    O9       O        0.14410    0.59646    0.28333    1.000
    O10      O        0.46620    0.84912    0.35210    1.000
    O11      O        0.04480    0.56145    0.41275    1.000
    O12      O        0.32410    0.94826    0.35980    1.000
    C11      C        0.12250    0.60882    0.37660    1.000
    C12      C        0.30600    0.81369    0.44740    1.000
    C13      C        0.18980    0.68004    0.44280    1.000
    C14      C        0.24720    0.74326    0.39240    1.000
    C15      C        0.36830    0.87610    0.38440    1.000
    H3       H        0.24606    0.73803    0.31728    1.000
    O13      O        0.64410    0.09646    0.28333    1.000
    O14      O        0.96620    0.34912    0.35210    1.000
    O15      O        0.54480    0.06145    0.41275    1.000
    O16      O        0.82410    0.44826    0.35980    1.000
    C16      C        0.62250    0.10882    0.37660    1.000
    C17      C        0.80600    0.31369    0.44740    1.000
    C18      C        0.68980    0.18004    0.44280    1.000
    C19      C        0.74720    0.24326    0.39240    1.000
    C20      C        0.86830    0.37610    0.38440    1.000
    H4       H        0.74606    0.23803    0.31728    1.000
    O17      O        0.14410    0.40354    0.78333    1.000
    O18      O        0.46620    0.15088    0.85210    1.000
    O19      O        0.04480    0.43855    0.91275    1.000
    O20      O        0.32410    0.05174    0.85980    1.000
    C21      C        0.12250    0.39118    0.87660    1.000
    C22      C        0.30600    0.18631    0.94740    1.000
    C23      C        0.18980    0.31996    0.94280    1.000
    C24      C        0.24720    0.25674    0.89240    1.000
    C25      C        0.36830    0.12390    0.88440    1.000
    H5       H        0.24606    0.26197    0.81728    1.000
    O21      O        0.64410    0.90354    0.78333    1.000
    O22      O        0.96620    0.65088    0.85210    1.000
    O23      O        0.54480    0.93855    0.91275    1.000
    O24      O        0.82410    0.55174    0.85980    1.000
    C26      C        0.62250    0.89118    0.87660    1.000
    C27      C        0.80600    0.68631    0.94740    1.000
    C28      C        0.68980    0.81996    0.94280    1.000
    C29      C        0.74720    0.75674    0.89240    1.000
    C30      C        0.86830    0.62390    0.88440    1.000
    H6       H        0.74606    0.76197    0.81728    1.000
    O25      O        0.85590    0.40354    0.71667    1.000
    O26      O        0.53380    0.15088    0.64790    1.000
    O27      O        0.95520    0.43855    0.58725    1.000
    O28      O        0.67590    0.05174    0.64020    1.000
    C31      C        0.87750    0.39118    0.62340    1.000
    C32      C        0.69400    0.18631    0.55260    1.000
    C33      C        0.81020    0.31996    0.55720    1.000
    C34      C        0.75280    0.25674    0.60760    1.000
    C35      C        0.63170    0.12390    0.61560    1.000
    H7       H        0.75394    0.26197    0.68272    1.000
    O29      O        0.35590    0.90354    0.71667    1.000
    O30      O        0.03380    0.65088    0.64790    1.000
    O31      O        0.45520    0.93855    0.58725    1.000
    O32      O        0.17590    0.55174    0.64020    1.000
    C36      C        0.37750    0.89118    0.62340    1.000
    C37      C        0.19400    0.68631    0.55260    1.000
    C38      C        0.31020    0.81996    0.55720    1.000
    C39      C        0.25280    0.75674    0.60760    1.000
    C40      C        0.13170    0.62390    0.61560    1.000
    H8       H        0.25394    0.76197    0.68272    1.000
    U1       U        0.00000    0.47175    0.25000    1.000
    U2       U        0.50000    0.97175    0.25000    1.000
    U3       U        0.00000    0.52825    0.75000    1.000
    U4       U        0.50000    0.02825    0.75000    1.000
