# CIF file generated by openbabel 3.1.0, see https://openbabel.org
data_I
_chemical_name_common 'image0'
_cell_length_a 12.758
_cell_length_b 17.5203
_cell_length_c 21.8129
_cell_angle_alpha 90
_cell_angle_beta 90
_cell_angle_gamma 90
_space_group_name_H-M_alt 'P 1'
_space_group_name_Hall 'P 1'
loop_
    _symmetry_equiv_pos_as_xyz
    x,y,z
loop_
    _atom_site_label
    _atom_site_type_symbol
    _atom_site_fract_x
    _atom_site_fract_y
    _atom_site_fract_z
    _atom_site_occupancy
    In1      In       0.91913    0.98958    0.82681    1.000
    C1       C        0.84000    0.76480    0.79370    1.000
    C2       C        0.90620    0.71920    0.75920    1.000
    H1       H        0.96700    0.73900    0.74190    1.000
    C3       C        0.87950    0.64320    0.75130    1.000
    C4       C        0.78580    0.61420    0.77740    1.000
    H2       H        0.76870    0.56290    0.77340    1.000
    C5       C        0.72070    0.66320    0.80870    1.000
    C6       C        0.74880    0.73630    0.82010    1.000
    H3       H        0.70780    0.76710    0.84520    1.000
    C7       C        0.53940    0.61320    0.79950    1.000
    C8       C        0.52730    0.62600    0.73640    1.000
    H4       H        0.57870    0.64870    0.71230    1.000
    C9       C        0.42890    0.60090    0.71250    1.000
    H5       H        0.41580    0.60700    0.67080    1.000
    C10      C        0.35260    0.56820    0.74870    1.000
    C11      C        0.36800    0.55830    0.81160    1.000
    H6       H        0.31540    0.53770    0.83610    1.000
    C12      C        0.46570    0.58050    0.83740    1.000
    C13      C        0.50850    0.57830    0.89730    1.000
    C14      C        0.47410    0.55180    0.95360    1.000
    H7       H        0.40860    0.52890    0.95730    1.000
    C15      C        0.53830    0.55960    0.00450    1.000
    C16      C        0.63740    0.59070    0.99970    1.000
    H8       H        0.67980    0.59450    0.03430    1.000
    C17      C        0.67340    0.61590    0.94430    1.000
    H9       H        0.73990    0.63720    0.94060    1.000
    C18      C        0.60940    0.60910    0.89450    1.000
    C19      C        0.87100    0.84630    0.80480    1.000
    C20      C        0.95170    0.59040    0.71980    1.000
    C21      C        0.25100    0.54450    0.72240    1.000
    C22      C        0.49710    0.53570    0.06500    1.000
    N1       N        0.62710    0.63180    0.83310    1.000
    O1       O        0.94810    0.87390    0.77650    1.000
    O2       O        0.82250    0.88540    0.84320    1.000
    O3       O        0.01760    0.61240    0.68230    1.000
    O4       O        0.94720    0.51880    0.73460    1.000
    O5       O        0.23790    0.55030    0.66550    1.000
    O6       O        0.18090    0.51520    0.75460    1.000
    O7       O        0.41500    0.49730    0.07040    1.000
    O8       O        0.54650    0.55530    0.11330    1.000
    In2      In       0.58087    0.01042    0.32681    1.000
    C23      C        0.66000    0.23520    0.29370    1.000
    C24      C        0.59380    0.28080    0.25920    1.000
    H10      H        0.53300    0.26100    0.24190    1.000
    C25      C        0.62050    0.35680    0.25130    1.000
    C26      C        0.71420    0.38580    0.27740    1.000
    H11      H        0.73130    0.43710    0.27340    1.000
    C27      C        0.77930    0.33680    0.30870    1.000
    C28      C        0.75120    0.26370    0.32010    1.000
    H12      H        0.79220    0.23290    0.34520    1.000
    C29      C        0.96060    0.38680    0.29950    1.000
    C30      C        0.97270    0.37400    0.23640    1.000
    H13      H        0.92130    0.35130    0.21230    1.000
    C31      C        0.07110    0.39910    0.21250    1.000
    H14      H        0.08420    0.39300    0.17080    1.000
    C32      C        0.14740    0.43180    0.24870    1.000
    C33      C        0.13200    0.44170    0.31160    1.000
    H15      H        0.18460    0.46230    0.33610    1.000
    C34      C        0.03430    0.41950    0.33740    1.000
    C35      C        0.99150    0.42170    0.39730    1.000
    C36      C        0.02590    0.44820    0.45360    1.000
    H16      H        0.09140    0.47110    0.45730    1.000
    C37      C        0.96170    0.44040    0.50450    1.000
    C38      C        0.86260    0.40930    0.49970    1.000
    H17      H        0.82020    0.40550    0.53430    1.000
    C39      C        0.82660    0.38410    0.44430    1.000
    H18      H        0.76010    0.36280    0.44060    1.000
    C40      C        0.89060    0.39090    0.39450    1.000
    C41      C        0.62900    0.15370    0.30480    1.000
    C42      C        0.54830    0.40960    0.21980    1.000
    C43      C        0.24900    0.45550    0.22240    1.000
    C44      C        0.00290    0.46430    0.56500    1.000
    N2       N        0.87290    0.36820    0.33310    1.000
    O9       O        0.55190    0.12610    0.27650    1.000
    O10      O        0.67750    0.11460    0.34320    1.000
    O11      O        0.48240    0.38760    0.18230    1.000
    O12      O        0.55280    0.48120    0.23460    1.000
    O13      O        0.26210    0.44970    0.16550    1.000
    O14      O        0.31910    0.48480    0.25460    1.000
    O15      O        0.08500    0.50270    0.57040    1.000
    O16      O        0.95350    0.44470    0.61330    1.000
    In3      In       0.08087    0.48958    0.67319    1.000
    C45      C        0.16000    0.26480    0.70630    1.000
    C46      C        0.09380    0.21920    0.74080    1.000
    H19      H        0.03300    0.23900    0.75810    1.000
    C47      C        0.12050    0.14320    0.74870    1.000
    C48      C        0.21420    0.11420    0.72260    1.000
    H20      H        0.23130    0.06290    0.72660    1.000
    C49      C        0.27930    0.16320    0.69130    1.000
    C50      C        0.25120    0.23630    0.67990    1.000
    H21      H        0.29220    0.26710    0.65480    1.000
    C51      C        0.46060    0.11320    0.70050    1.000
    C52      C        0.47270    0.12600    0.76360    1.000
    H22      H        0.42130    0.14870    0.78770    1.000
    C53      C        0.57110    0.10090    0.78750    1.000
    H23      H        0.58420    0.10700    0.82920    1.000
    C54      C        0.64740    0.06820    0.75130    1.000
    C55      C        0.63200    0.05830    0.68840    1.000
    H24      H        0.68460    0.03770    0.66390    1.000
    C56      C        0.53430    0.08050    0.66260    1.000
    C57      C        0.49150    0.07830    0.60270    1.000
    C58      C        0.52590    0.05180    0.54640    1.000
    H25      H        0.59140    0.02890    0.54270    1.000
    C59      C        0.46170    0.05960    0.49550    1.000
    C60      C        0.36260    0.09070    0.50030    1.000
    H26      H        0.32020    0.09450    0.46570    1.000
    C61      C        0.32660    0.11590    0.55570    1.000
    H27      H        0.26010    0.13720    0.55940    1.000
    C62      C        0.39060    0.10910    0.60550    1.000
    C63      C        0.12900    0.34630    0.69520    1.000
    C64      C        0.04830    0.09040    0.78020    1.000
    C65      C        0.74900    0.04450    0.77760    1.000
    C66      C        0.50290    0.03570    0.43500    1.000
    N3       N        0.37290    0.13180    0.66690    1.000
    O17      O        0.05190    0.37390    0.72350    1.000
    O18      O        0.17750    0.38540    0.65680    1.000
    O19      O        0.98240    0.11240    0.81770    1.000
    O20      O        0.05280    0.01880    0.76540    1.000
    O21      O        0.76210    0.05030    0.83450    1.000
    O22      O        0.81910    0.01520    0.74540    1.000
    O23      O        0.58500    0.99730    0.42960    1.000
    O24      O        0.45350    0.05530    0.38670    1.000
    In4      In       0.41913    0.51042    0.17319    1.000
    C67      C        0.34000    0.73520    0.20630    1.000
    C68      C        0.40620    0.78080    0.24080    1.000
    H28      H        0.46700    0.76100    0.25810    1.000
    C69      C        0.37950    0.85680    0.24870    1.000
    C70      C        0.28580    0.88580    0.22260    1.000
    H29      H        0.26870    0.93710    0.22660    1.000
    C71      C        0.22070    0.83680    0.19130    1.000
    C72      C        0.24880    0.76370    0.17990    1.000
    H30      H        0.20780    0.73290    0.15480    1.000
    C73      C        0.03940    0.88680    0.20050    1.000
    C74      C        0.02730    0.87400    0.26360    1.000
    H31      H        0.07870    0.85130    0.28770    1.000
    C75      C        0.92890    0.89910    0.28750    1.000
    H32      H        0.91580    0.89300    0.32920    1.000
    C76      C        0.85260    0.93180    0.25130    1.000
    C77      C        0.86800    0.94170    0.18840    1.000
    H33      H        0.81540    0.96230    0.16390    1.000
    C78      C        0.96570    0.91950    0.16260    1.000
    C79      C        0.00850    0.92170    0.10270    1.000
    C80      C        0.97410    0.94820    0.04640    1.000
    H34      H        0.90860    0.97110    0.04270    1.000
    C81      C        0.03830    0.94040    0.99550    1.000
    C82      C        0.13740    0.90930    0.00030    1.000
    H35      H        0.17980    0.90550    0.96570    1.000
    C83      C        0.17340    0.88410    0.05570    1.000
    H36      H        0.23990    0.86280    0.05940    1.000
    C84      C        0.10940    0.89090    0.10550    1.000
    C85      C        0.37100    0.65370    0.19520    1.000
    C86      C        0.45170    0.90960    0.28020    1.000
    C87      C        0.75100    0.95550    0.27760    1.000
    C88      C        0.99710    0.96430    0.93500    1.000
    N4       N        0.12710    0.86820    0.16690    1.000
    O25      O        0.44810    0.62610    0.22350    1.000
    O26      O        0.32250    0.61460    0.15680    1.000
    O27      O        0.51760    0.88760    0.31770    1.000
    O28      O        0.44720    0.98120    0.26540    1.000
    O29      O        0.73790    0.94970    0.33450    1.000
    O30      O        0.68090    0.98480    0.24540    1.000
    O31      O        0.91500    0.00270    0.92960    1.000
    O32      O        0.04650    0.94470    0.88670    1.000
