# CIF file generated by openbabel 3.1.0, see https://openbabel.org
data_I
_chemical_name_common 'image0'
_cell_length_a 17.2544
_cell_length_b 17.2544
_cell_length_c 15.3517
_cell_angle_alpha 90
_cell_angle_beta 90
_cell_angle_gamma 90
_space_group_name_H-M_alt 'P 1'
_space_group_name_Hall 'P 1'
loop_
    _symmetry_equiv_pos_as_xyz
    x,y,z
loop_
    _atom_site_label
    _atom_site_type_symbol
    _atom_site_fract_x
    _atom_site_fract_y
    _atom_site_fract_z
    _atom_site_occupancy
    C1       C        0.30520    0.56870    0.30130    1.000
    C2       C        0.25560    0.61940    0.24660    1.000
    C3       C        0.19450    0.59110    0.19830    1.000
    H1       H        0.18390    0.53770    0.20010    1.000
    C4       C        0.14830    0.63790    0.14730    1.000
    H2       H        0.10920    0.61670    0.11200    1.000
    C5       C        0.16130    0.71680    0.14980    1.000
    C6       C        0.21930    0.74700    0.19630    1.000
    H3       H        0.22760    0.80090    0.19590    1.000
    C7       C        0.26770    0.69910    0.24560    1.000
    H4       H        0.30840    0.72070    0.27810    1.000
    C8       C        0.99090    0.75180    0.19430    1.000
    H5       H        0.02560    0.74100    0.24250    1.000
    H6       H        0.96650    0.70410    0.17540    1.000
    H7       H        0.95150    0.78830    0.21290    1.000
    C9       C        0.03610    0.78600    0.12030    1.000
    C10      C        0.13090    0.81350    0.03360    1.000
    C11      C        0.20750    0.81580    0.99200    1.000
    H8       H        0.20880    0.85750    0.94960    1.000
    H9       H        0.21720    0.76680    0.96290    1.000
    H10      H        0.24700    0.82460    0.03590    1.000
    N1       N        0.01080    0.83820    0.06790    1.000
    N2       N        0.07130    0.85460    0.01130    1.000
    N3       N        0.11080    0.76790    0.10290    1.000
    O1       O        0.36610    0.59860    0.32840    1.000
    O2       O        0.28390    0.50140    0.31780    1.000
    Cu1      Cu       0.43218    0.54997    0.41692    1.000
    C12      C        0.69480    0.43130    0.30130    1.000
    C13      C        0.74440    0.38060    0.24660    1.000
    C14      C        0.80550    0.40890    0.19830    1.000
    H11      H        0.81610    0.46230    0.20010    1.000
    C15      C        0.85170    0.36210    0.14730    1.000
    H12      H        0.89080    0.38330    0.11200    1.000
    C16      C        0.83870    0.28320    0.14980    1.000
    C17      C        0.78070    0.25300    0.19630    1.000
    H13      H        0.77240    0.19910    0.19590    1.000
    C18      C        0.73230    0.30090    0.24560    1.000
    H14      H        0.69160    0.27930    0.27810    1.000
    C19      C        0.00910    0.24820    0.19430    1.000
    H15      H        0.97440    0.25900    0.24250    1.000
    H16      H        0.03350    0.29590    0.17540    1.000
    H17      H        0.04850    0.21170    0.21290    1.000
    C20      C        0.96390    0.21400    0.12030    1.000
    C21      C        0.86910    0.18650    0.03360    1.000
    C22      C        0.79250    0.18420    0.99200    1.000
    H18      H        0.79120    0.14250    0.94960    1.000
    H19      H        0.78280    0.23320    0.96290    1.000
    H20      H        0.75300    0.17540    0.03590    1.000
    N4       N        0.98920    0.16180    0.06790    1.000
    N5       N        0.92870    0.14540    0.01130    1.000
    N6       N        0.88920    0.23210    0.10290    1.000
    O3       O        0.63390    0.40140    0.32840    1.000
    O4       O        0.71610    0.49860    0.31780    1.000
    Cu2      Cu       0.56782    0.45003    0.41692    1.000
    C23      C        0.56870    0.69480    0.69870    1.000
    C24      C        0.61940    0.74440    0.75340    1.000
    C25      C        0.59110    0.80550    0.80170    1.000
    H21      H        0.53770    0.81610    0.79990    1.000
    C26      C        0.63790    0.85170    0.85270    1.000
    H22      H        0.61670    0.89080    0.88800    1.000
    C27      C        0.71680    0.83870    0.85020    1.000
    C28      C        0.74700    0.78070    0.80370    1.000
    H23      H        0.80090    0.77240    0.80410    1.000
    C29      C        0.69910    0.73230    0.75440    1.000
    H24      H        0.72070    0.69160    0.72190    1.000
    C30      C        0.75180    0.00910    0.80570    1.000
    H25      H        0.74100    0.97440    0.75750    1.000
    H26      H        0.70410    0.03350    0.82460    1.000
    H27      H        0.78830    0.04850    0.78710    1.000
    C31      C        0.78600    0.96390    0.87970    1.000
    C32      C        0.81350    0.86910    0.96640    1.000
    C33      C        0.81580    0.79250    0.00800    1.000
    H28      H        0.85750    0.79120    0.05040    1.000
    H29      H        0.76680    0.78280    0.03710    1.000
    H30      H        0.82460    0.75300    0.96410    1.000
    N7       N        0.83820    0.98920    0.93210    1.000
    N8       N        0.85460    0.92870    0.98870    1.000
    N9       N        0.76790    0.88920    0.89710    1.000
    O5       O        0.59860    0.63390    0.67160    1.000
    O6       O        0.50140    0.71610    0.68220    1.000
    Cu3      Cu       0.54997    0.56782    0.58308    1.000
    C34      C        0.43130    0.30520    0.69870    1.000
    C35      C        0.38060    0.25560    0.75340    1.000
    C36      C        0.40890    0.19450    0.80170    1.000
    H31      H        0.46230    0.18390    0.79990    1.000
    C37      C        0.36210    0.14830    0.85270    1.000
    H32      H        0.38330    0.10920    0.88800    1.000
    C38      C        0.28320    0.16130    0.85020    1.000
    C39      C        0.25300    0.21930    0.80370    1.000
    H33      H        0.19910    0.22760    0.80410    1.000
    C40      C        0.30090    0.26770    0.75440    1.000
    H34      H        0.27930    0.30840    0.72190    1.000
    C41      C        0.24820    0.99090    0.80570    1.000
    H35      H        0.25900    0.02560    0.75750    1.000
    H36      H        0.29590    0.96650    0.82460    1.000
    H37      H        0.21170    0.95150    0.78710    1.000
    C42      C        0.21400    0.03610    0.87970    1.000
    C43      C        0.18650    0.13090    0.96640    1.000
    C44      C        0.18420    0.20750    0.00800    1.000
    H38      H        0.14250    0.20880    0.05040    1.000
    H39      H        0.23320    0.21720    0.03710    1.000
    H40      H        0.17540    0.24700    0.96410    1.000
    N10      N        0.16180    0.01080    0.93210    1.000
    N11      N        0.14540    0.07130    0.98870    1.000
    N12      N        0.23210    0.11080    0.89710    1.000
    O7       O        0.40140    0.36610    0.67160    1.000
    O8       O        0.49860    0.28390    0.68220    1.000
    Cu4      Cu       0.45003    0.43218    0.58308    1.000
    C45      C        0.19480    0.06870    0.19870    1.000
    C46      C        0.24440    0.11940    0.25340    1.000
    C47      C        0.30550    0.09110    0.30170    1.000
    H41      H        0.31610    0.03770    0.29990    1.000
    C48      C        0.35170    0.13790    0.35270    1.000
    H42      H        0.39080    0.11670    0.38800    1.000
    C49      C        0.33870    0.21680    0.35020    1.000
    C50      C        0.28070    0.24700    0.30370    1.000
    H43      H        0.27240    0.30090    0.30410    1.000
    C51      C        0.23230    0.19910    0.25440    1.000
    H44      H        0.19160    0.22070    0.22190    1.000
    C52      C        0.50910    0.25180    0.30570    1.000
    H45      H        0.47440    0.24100    0.25750    1.000
    H46      H        0.53350    0.20410    0.32460    1.000
    H47      H        0.54850    0.28830    0.28710    1.000
    C53      C        0.46390    0.28600    0.37970    1.000
    C54      C        0.36910    0.31350    0.46640    1.000
    C55      C        0.29250    0.31580    0.50800    1.000
    H48      H        0.29120    0.35750    0.55040    1.000
    H49      H        0.28280    0.26680    0.53710    1.000
    H50      H        0.25300    0.32460    0.46410    1.000
    N13      N        0.48920    0.33820    0.43210    1.000
    N14      N        0.42870    0.35460    0.48870    1.000
    N15      N        0.38920    0.26790    0.39710    1.000
    O9       O        0.13390    0.09860    0.17160    1.000
    O10      O        0.21610    0.00140    0.18220    1.000
    Cu5      Cu       0.06782    0.04997    0.08308    1.000
    C56      C        0.80520    0.93130    0.19870    1.000
    C57      C        0.75560    0.88060    0.25340    1.000
    C58      C        0.69450    0.90890    0.30170    1.000
    H51      H        0.68390    0.96230    0.29990    1.000
    C59      C        0.64830    0.86210    0.35270    1.000
    H52      H        0.60920    0.88330    0.38800    1.000
    C60      C        0.66130    0.78320    0.35020    1.000
    C61      C        0.71930    0.75300    0.30370    1.000
    H53      H        0.72760    0.69910    0.30410    1.000
    C62      C        0.76770    0.80090    0.25440    1.000
    H54      H        0.80840    0.77930    0.22190    1.000
    C63      C        0.49090    0.74820    0.30570    1.000
    H55      H        0.52560    0.75900    0.25750    1.000
    H56      H        0.46650    0.79590    0.32460    1.000
    H57      H        0.45150    0.71170    0.28710    1.000
    C64      C        0.53610    0.71400    0.37970    1.000
    C65      C        0.63090    0.68650    0.46640    1.000
    C66      C        0.70750    0.68420    0.50800    1.000
    H58      H        0.70880    0.64250    0.55040    1.000
    H59      H        0.71720    0.73320    0.53710    1.000
    H60      H        0.74700    0.67540    0.46410    1.000
    N16      N        0.51080    0.66180    0.43210    1.000
    N17      N        0.57130    0.64540    0.48870    1.000
    N18      N        0.61080    0.73210    0.39710    1.000
    O11      O        0.86610    0.90140    0.17160    1.000
    O12      O        0.78390    0.99860    0.18220    1.000
    Cu6      Cu       0.93218    0.95003    0.08308    1.000
    C67      C        0.93130    0.19480    0.80130    1.000
    C68      C        0.88060    0.24440    0.74660    1.000
    C69      C        0.90890    0.30550    0.69830    1.000
    H61      H        0.96230    0.31610    0.70010    1.000
    C70      C        0.86210    0.35170    0.64730    1.000
    H62      H        0.88330    0.39080    0.61200    1.000
    C71      C        0.78320    0.33870    0.64980    1.000
    C72      C        0.75300    0.28070    0.69630    1.000
    H63      H        0.69910    0.27240    0.69590    1.000
    C73      C        0.80090    0.23230    0.74560    1.000
    H64      H        0.77930    0.19160    0.77810    1.000
    C74      C        0.74820    0.50910    0.69430    1.000
    H65      H        0.75900    0.47440    0.74250    1.000
    H66      H        0.79590    0.53350    0.67540    1.000
    H67      H        0.71170    0.54850    0.71290    1.000
    C75      C        0.71400    0.46390    0.62030    1.000
    C76      C        0.68650    0.36910    0.53360    1.000
    C77      C        0.68420    0.29250    0.49200    1.000
    H68      H        0.64250    0.29120    0.44960    1.000
    H69      H        0.73320    0.28280    0.46290    1.000
    H70      H        0.67540    0.25300    0.53590    1.000
    N19      N        0.66180    0.48920    0.56790    1.000
    N20      N        0.64540    0.42870    0.51130    1.000
    N21      N        0.73210    0.38920    0.60290    1.000
    O13      O        0.90140    0.13390    0.82840    1.000
    O14      O        0.99860    0.21610    0.81780    1.000
    Cu7      Cu       0.95003    0.06782    0.91692    1.000
    C78      C        0.06870    0.80520    0.80130    1.000
    C79      C        0.11940    0.75560    0.74660    1.000
    C80      C        0.09110    0.69450    0.69830    1.000
    H71      H        0.03770    0.68390    0.70010    1.000
    C81      C        0.13790    0.64830    0.64730    1.000
    H72      H        0.11670    0.60920    0.61200    1.000
    C82      C        0.21680    0.66130    0.64980    1.000
    C83      C        0.24700    0.71930    0.69630    1.000
    H73      H        0.30090    0.72760    0.69590    1.000
    C84      C        0.19910    0.76770    0.74560    1.000
    H74      H        0.22070    0.80840    0.77810    1.000
    C85      C        0.25180    0.49090    0.69430    1.000
    H75      H        0.24100    0.52560    0.74250    1.000
    H76      H        0.20410    0.46650    0.67540    1.000
    H77      H        0.28830    0.45150    0.71290    1.000
    C86      C        0.28600    0.53610    0.62030    1.000
    C87      C        0.31350    0.63090    0.53360    1.000
    C88      C        0.31580    0.70750    0.49200    1.000
    H78      H        0.35750    0.70880    0.44960    1.000
    H79      H        0.26680    0.71720    0.46290    1.000
    H80      H        0.32460    0.74700    0.53590    1.000
    N22      N        0.33820    0.51080    0.56790    1.000
    N23      N        0.35460    0.57130    0.51130    1.000
    N24      N        0.26790    0.61080    0.60290    1.000
    O15      O        0.09860    0.86610    0.82840    1.000
    O16      O        0.00140    0.78390    0.81780    1.000
    Cu8      Cu       0.04997    0.93218    0.91692    1.000
    O17      O        0.50000    0.50000    0.50000    1.000
    O18      O        0.00000    0.00000    0.00000    1.000
    O19      O        0.50000    0.50000    0.33070    1.000
    O20      O        0.50000    0.50000    0.66930    1.000
    O21      O        0.00000    0.00000    0.16930    1.000
    O22      O        0.00000    0.00000    0.83070    1.000
