# CIF file generated by openbabel 3.1.0, see https://openbabel.org
data_I
_chemical_name_common 'SUNJOB01_clean'
_cell_length_a 9.8135
_cell_length_b 10.431
_cell_length_c 11.0671
_cell_angle_alpha 76.843
_cell_angle_beta 76.276
_cell_angle_gamma 65.94
_space_group_name_H-M_alt 'P 1'
_space_group_name_Hall 'P 1'
loop_
    _symmetry_equiv_pos_as_xyz
    x,y,z
loop_
    _atom_site_label
    _atom_site_type_symbol
    _atom_site_fract_x
    _atom_site_fract_y
    _atom_site_fract_z
    _atom_site_occupancy
    Ho1      Ho       0.94486    0.22804    0.82318    1.000
    Ho2      Ho       0.05514    0.77196    0.17682    1.000
    H1       H        0.65000    0.85620    0.14910    1.000
    H2       H        0.59930    0.11620    0.81910    1.000
    H3       H        0.43610    0.41380    0.70800    1.000
    H4       H        0.73990    0.50260    0.42370    1.000
    H5       H        0.30830    0.92310    0.50720    1.000
    H6       H        0.45580    0.18490    0.60420    1.000
    H7       H        0.35000    0.14380    0.85090    1.000
    H8       H        0.40070    0.88380    0.18090    1.000
    H9       H        0.56390    0.58620    0.29200    1.000
    H10      H        0.26010    0.49740    0.57630    1.000
    H11      H        0.69170    0.07690    0.49280    1.000
    H12      H        0.54420    0.81510    0.39580    1.000
    C1       C        0.65160    0.98720    0.98320    1.000
    C2       C        0.58970    0.91500    0.08960    1.000
    C3       C        0.55920    0.07040    0.89230    1.000
    C4       C        0.80970    0.97620    0.96840    1.000
    C5       C        0.60890    0.44780    0.58040    1.000
    C6       C        0.46220    0.44830    0.62420    1.000
    C7       C        0.64370    0.50110    0.45480    1.000
    C8       C        0.35620    0.06510    0.56750    1.000
    C9       C        0.38520    0.95450    0.50460    1.000
    C10      C        0.47310    0.11040    0.56230    1.000
    C11      C        0.20500    0.13220    0.64710    1.000
    C12      C        0.72340    0.38830    0.66440    1.000
    C13      C        0.34840    0.01280    0.01680    1.000
    C14      C        0.41030    0.08500    0.91040    1.000
    C15      C        0.44080    0.92960    0.10770    1.000
    C16      C        0.19030    0.02380    0.03160    1.000
    C17      C        0.39110    0.55220    0.41960    1.000
    C18      C        0.53780    0.55170    0.37580    1.000
    C19      C        0.35630    0.49890    0.54520    1.000
    C20      C        0.64380    0.93490    0.43250    1.000
    C21      C        0.61480    0.04550    0.49540    1.000
    C22      C        0.52690    0.88960    0.43770    1.000
    C23      C        0.79500    0.86780    0.35290    1.000
    C24      C        0.27660    0.61170    0.33560    1.000
    O1       O        0.85760    0.04770    0.87250    1.000
    O2       O        0.88510    0.89810    0.05230    1.000
    O3       O        0.85870    0.37500    0.62430    1.000
    O4       O        0.17190    0.24790    0.68260    1.000
    O5       O        0.11570    0.06510    0.68060    1.000
    O6       O        0.68850    0.35100    0.78090    1.000
    O7       O        0.14240    0.95230    0.12750    1.000
    O8       O        0.11490    0.10190    0.94770    1.000
    O9       O        0.14130    0.62500    0.37570    1.000
    O10      O        0.82810    0.75210    0.31740    1.000
    O11      O        0.88430    0.93490    0.31940    1.000
    O12      O        0.31150    0.64900    0.21910    1.000
