# CIF file generated by openbabel 3.1.0, see https://openbabel.org
data_I
_chemical_name_common 'image0'
_cell_length_a 9.6239
_cell_length_b 11.603
_cell_length_c 14.305
_cell_angle_alpha 90
_cell_angle_beta 122.463
_cell_angle_gamma 90
_space_group_name_H-M_alt 'P 1'
_space_group_name_Hall 'P 1'
loop_
    _symmetry_equiv_pos_as_xyz
    x,y,z
loop_
    _atom_site_label
    _atom_site_type_symbol
    _atom_site_fract_x
    _atom_site_fract_y
    _atom_site_fract_z
    _atom_site_occupancy
    Dy1      Dy       0.11766    0.98689    0.83232    1.000
    O1       O        0.20480    0.78776    0.84376    1.000
    O2       O        0.89700    0.86288    0.70709    1.000
    O3       O        0.80610    0.68170    0.67093    1.000
    O4       O        0.11690    0.60625    0.79662    1.000
    O5       O        0.34000    0.98878    0.02214    1.000
    O6       O        0.01920    0.88221    0.93259    1.000
    O7       O        0.96190    0.88866    0.06433    1.000
    O8       O        0.61060    0.01101    0.14319    1.000
    C1       C        0.09650    0.71280    0.79310    1.000
    C2       C        0.91710    0.75650    0.71680    1.000
    C3       C        0.48560    0.99990    0.04830    1.000
    C4       C        0.99450    0.93360    0.99900    1.000
    Dy2      Dy       0.88234    0.48689    0.66768    1.000
    O9       O        0.79520    0.28776    0.65624    1.000
    O10      O        0.10300    0.36288    0.79291    1.000
    O11      O        0.19390    0.18170    0.82907    1.000
    O12      O        0.88310    0.10625    0.70338    1.000
    O13      O        0.66000    0.48878    0.47786    1.000
    O14      O        0.98080    0.38221    0.56741    1.000
    O15      O        0.03810    0.38866    0.43567    1.000
    O16      O        0.38940    0.51101    0.35681    1.000
    C5       C        0.90350    0.21280    0.70690    1.000
    C6       C        0.08290    0.25650    0.78320    1.000
    C7       C        0.51440    0.49990    0.45170    1.000
    C8       C        0.00550    0.43360    0.50100    1.000
    Dy3      Dy       0.88234    0.01311    0.16768    1.000
    O17      O        0.79520    0.21224    0.15624    1.000
    O18      O        0.10300    0.13712    0.29291    1.000
    O19      O        0.19390    0.31830    0.32907    1.000
    O20      O        0.88310    0.39375    0.20338    1.000
    O21      O        0.66000    0.01122    0.97786    1.000
    O22      O        0.98080    0.11779    0.06741    1.000
    O23      O        0.03810    0.11134    0.93567    1.000
    O24      O        0.38940    0.98899    0.85681    1.000
    C9       C        0.90350    0.28720    0.20690    1.000
    C10      C        0.08290    0.24350    0.28320    1.000
    C11      C        0.51440    0.00010    0.95170    1.000
    C12      C        0.00550    0.06640    0.00100    1.000
    Dy4      Dy       0.11766    0.51311    0.33232    1.000
    O25      O        0.20480    0.71224    0.34376    1.000
    O26      O        0.89700    0.63712    0.20709    1.000
    O27      O        0.80610    0.81830    0.17093    1.000
    O28      O        0.11690    0.89375    0.29662    1.000
    O29      O        0.34000    0.51122    0.52214    1.000
    O30      O        0.01920    0.61779    0.43259    1.000
    O31      O        0.96190    0.61134    0.56433    1.000
    O32      O        0.61060    0.48899    0.64319    1.000
    C13      C        0.09650    0.78720    0.29310    1.000
    C14      C        0.91710    0.74350    0.21680    1.000
    C15      C        0.48560    0.50010    0.54830    1.000
    C16      C        0.99450    0.56640    0.49900    1.000
