# CIF file generated by openbabel 3.1.0, see https://openbabel.org
data_I
_chemical_name_common 'image0'
_cell_length_a 18.2715
_cell_length_b 18.2715
_cell_length_c 17.0912
_cell_angle_alpha 90
_cell_angle_beta 90
_cell_angle_gamma 90
_space_group_name_H-M_alt 'P 1'
_space_group_name_Hall 'P 1'
loop_
    _symmetry_equiv_pos_as_xyz
    x,y,z
loop_
    _atom_site_label
    _atom_site_type_symbol
    _atom_site_fract_x
    _atom_site_fract_y
    _atom_site_fract_z
    _atom_site_occupancy
    C1       C        0.72553    0.00421    0.48986    1.000
    H1       H        0.75350    0.00410    0.44300    1.000
    C2       C        0.70800    0.07008    0.52600    1.000
    C3       C        0.66710    0.07022    0.59450    1.000
    H2       H        0.65510    0.11520    0.61920    1.000
    C4       C        0.64370    0.00450    0.62700    1.000
    C5       C        0.66120    0.93863    0.59090    1.000
    H3       H        0.64530    0.89370    0.61310    1.000
    C6       C        0.70220    0.93848    0.52230    1.000
    C7       C        0.54660    0.05520    0.99720    1.000
    C8       C        0.54200    0.10600    0.05670    1.000
    C9       C        0.50549    0.14524    0.18770    1.000
    C10      C        0.43955    0.16446    0.22266    1.000
    H4       H        0.39460    0.14830    0.20060    1.000
    C11      C        0.43933    0.20730    0.28987    1.000
    C12      C        0.50506    0.23092    0.32212    1.000
    H5       H        0.50490    0.26020    0.36800    1.000
    C13      C        0.57100    0.21170    0.28720    1.000
    C14      C        0.57122    0.16886    0.21995    1.000
    H6       H        0.61630    0.15570    0.19610    1.000
    C15      C        0.53970    0.93500    0.94769    1.000
    C16      C        0.53280    0.98310    0.01030    1.000
    C17      C        0.51290    0.95688    0.08360    1.000
    C18      C        0.50014    0.11739    0.09431    1.000
    C19      C        0.49330    0.16550    0.03169    1.000
    C20      C        0.52660    0.86080    0.95838    1.000
    C21      C        0.51790    0.08260    0.13090    1.000
    C22      C        0.50800    0.00880    0.14500    1.000
    C23      C        0.61920    0.99660    0.71850    1.000
    C24      C        0.54480    0.98780    0.73280    1.000
    C25      C        0.52080    0.96740    0.80680    1.000
    C26      C        0.57110    0.95560    0.86650    1.000
    C27      C        0.64550    0.96440    0.85220    1.000
    C28      C        0.66950    0.98490    0.77820    1.000
    C29      C        0.57940    0.01230    0.68210    1.000
    C30      C        0.60570    0.03150    0.75790    1.000
    C31      C        0.44640    0.95780    0.81840    1.000
    Cu1      Cu       0.70856    0.71633    0.46098    1.000
    Cu2      Cu       0.78361    0.79074    0.35394    1.000
    C32      C        0.64200    0.22760    0.32820    1.000
    C33      C        0.37050    0.22210    0.33340    1.000
    O1       O        0.76200    0.87260    0.42090    1.000
    C34      C        0.71950    0.86870    0.48440    1.000
    O2       O        0.69630    0.80890    0.51290    1.000
    O3       O        0.76360    0.13390    0.42260    1.000
    C35      C        0.72760    0.13860    0.48360    1.000
    O4       O        0.70470    0.19730    0.51810    1.000
    O5       O        0.31210    0.19770    0.30070    1.000
    O6       O        0.69980    0.20430    0.30200    1.000
    O7       O        0.63450    0.26470    0.39340    1.000
    O8       O        0.37350    0.26080    0.39120    1.000
    O9       O        0.52300    0.81320    0.89580    1.000
    O10      O        0.68940    0.94630    0.91750    1.000
    C36      C        0.76370    0.92660    0.91140    1.000
    C37      C        0.51740    0.73880    0.90160    1.000
    C38      C        0.45430    0.69490    0.92500    1.000
    C39      C        0.80570    0.89000    0.84200    1.000
    C40      C        0.27447    0.99579    0.48986    1.000
    H7       H        0.24650    0.99590    0.44300    1.000
    C41      C        0.29200    0.92992    0.52600    1.000
    C42      C        0.33290    0.92978    0.59450    1.000
    H8       H        0.34490    0.88480    0.61920    1.000
    C43      C        0.35630    0.99550    0.62700    1.000
    C44      C        0.33880    0.06137    0.59090    1.000
    H9       H        0.35470    0.10630    0.61310    1.000
    C45      C        0.29780    0.06152    0.52230    1.000
    C46      C        0.45340    0.94480    0.99720    1.000
    C47      C        0.45800    0.89400    0.05670    1.000
    C48      C        0.49451    0.85476    0.18770    1.000
    C49      C        0.56045    0.83554    0.22266    1.000
    H10      H        0.60540    0.85170    0.20060    1.000
    C50      C        0.56067    0.79270    0.28987    1.000
    C51      C        0.49494    0.76908    0.32212    1.000
    H11      H        0.49510    0.73980    0.36800    1.000
    C52      C        0.42900    0.78830    0.28720    1.000
    C53      C        0.42878    0.83114    0.21995    1.000
    H12      H        0.38370    0.84430    0.19610    1.000
    C54      C        0.46030    0.06500    0.94769    1.000
    C55      C        0.46720    0.01690    0.01030    1.000
    C56      C        0.48710    0.04312    0.08360    1.000
    C57      C        0.49986    0.88261    0.09431    1.000
    C58      C        0.50670    0.83450    0.03169    1.000
    C59      C        0.47340    0.13920    0.95838    1.000
    C60      C        0.48210    0.91740    0.13090    1.000
    C61      C        0.49200    0.99120    0.14500    1.000
    C62      C        0.38080    0.00340    0.71850    1.000
    C63      C        0.45520    0.01220    0.73280    1.000
    C64      C        0.47920    0.03260    0.80680    1.000
    C65      C        0.42890    0.04440    0.86650    1.000
    C66      C        0.35450    0.03560    0.85220    1.000
    C67      C        0.33050    0.01510    0.77820    1.000
    C68      C        0.42060    0.98770    0.68210    1.000
    C69      C        0.39430    0.96850    0.75790    1.000
    C70      C        0.55360    0.04220    0.81840    1.000
    Cu3      Cu       0.29144    0.28367    0.46098    1.000
    Cu4      Cu       0.21639    0.20926    0.35394    1.000
    C71      C        0.35800    0.77240    0.32820    1.000
    C72      C        0.62950    0.77790    0.33340    1.000
    O11      O        0.23800    0.12740    0.42090    1.000
    C73      C        0.28050    0.13130    0.48440    1.000
    O12      O        0.30370    0.19110    0.51290    1.000
    O13      O        0.23640    0.86610    0.42260    1.000
    C74      C        0.27240    0.86140    0.48360    1.000
    O14      O        0.29530    0.80270    0.51810    1.000
    O15      O        0.68790    0.80230    0.30070    1.000
    O16      O        0.30020    0.79570    0.30200    1.000
    O17      O        0.36550    0.73530    0.39340    1.000
    O18      O        0.62650    0.73920    0.39120    1.000
    O19      O        0.47700    0.18680    0.89580    1.000
    O20      O        0.31060    0.05370    0.91750    1.000
    C75      C        0.23630    0.07340    0.91140    1.000
    C76      C        0.48260    0.26120    0.90160    1.000
    C77      C        0.54570    0.30510    0.92500    1.000
    C78      C        0.19430    0.11000    0.84200    1.000
    C79      C        0.99579    0.72553    0.48986    1.000
    H13      H        0.99590    0.75350    0.44300    1.000
    C80      C        0.92992    0.70800    0.52600    1.000
    C81      C        0.92978    0.66710    0.59450    1.000
    H14      H        0.88480    0.65510    0.61920    1.000
    C82      C        0.99550    0.64370    0.62700    1.000
    C83      C        0.06137    0.66120    0.59090    1.000
    H15      H        0.10630    0.64530    0.61310    1.000
    C84      C        0.06152    0.70220    0.52230    1.000
    C85      C        0.94480    0.54660    0.99720    1.000
    C86      C        0.89400    0.54200    0.05670    1.000
    C87      C        0.85476    0.50549    0.18770    1.000
    C88      C        0.83554    0.43955    0.22266    1.000
    H16      H        0.85170    0.39460    0.20060    1.000
    C89      C        0.79270    0.43933    0.28987    1.000
    C90      C        0.76908    0.50506    0.32212    1.000
    H17      H        0.73980    0.50490    0.36800    1.000
    C91      C        0.78830    0.57100    0.28720    1.000
    C92      C        0.83114    0.57122    0.21995    1.000
    H18      H        0.84430    0.61630    0.19610    1.000
    C93      C        0.06500    0.53970    0.94769    1.000
    C94      C        0.01690    0.53280    0.01030    1.000
    C95      C        0.04312    0.51290    0.08360    1.000
    C96      C        0.88261    0.50014    0.09431    1.000
    C97      C        0.83450    0.49330    0.03169    1.000
    C98      C        0.13920    0.52660    0.95838    1.000
    C99      C        0.91740    0.51790    0.13090    1.000
    C100     C        0.99120    0.50800    0.14500    1.000
    C101     C        0.00340    0.61920    0.71850    1.000
    C102     C        0.01220    0.54480    0.73280    1.000
    C103     C        0.03260    0.52080    0.80680    1.000
    C104     C        0.04440    0.57110    0.86650    1.000
    C105     C        0.03560    0.64550    0.85220    1.000
    C106     C        0.01510    0.66950    0.77820    1.000
    C107     C        0.98770    0.57940    0.68210    1.000
    C108     C        0.96850    0.60570    0.75790    1.000
    C109     C        0.04220    0.44640    0.81840    1.000
    Cu5      Cu       0.28367    0.70856    0.46098    1.000
    Cu6      Cu       0.20926    0.78361    0.35394    1.000
    C110     C        0.77240    0.64200    0.32820    1.000
    C111     C        0.77790    0.37050    0.33340    1.000
    O21      O        0.12740    0.76200    0.42090    1.000
    C112     C        0.13130    0.71950    0.48440    1.000
    O22      O        0.19110    0.69630    0.51290    1.000
    O23      O        0.86610    0.76360    0.42260    1.000
    C113     C        0.86140    0.72760    0.48360    1.000
    O24      O        0.80270    0.70470    0.51810    1.000
    O25      O        0.80230    0.31210    0.30070    1.000
    O26      O        0.79570    0.69980    0.30200    1.000
    O27      O        0.73530    0.63450    0.39340    1.000
    O28      O        0.73920    0.37350    0.39120    1.000
    O29      O        0.18680    0.52300    0.89580    1.000
    O30      O        0.05370    0.68940    0.91750    1.000
    C114     C        0.07340    0.76370    0.91140    1.000
    C115     C        0.26120    0.51740    0.90160    1.000
    C116     C        0.30510    0.45430    0.92500    1.000
    C117     C        0.11000    0.80570    0.84200    1.000
    C118     C        0.00421    0.27447    0.48986    1.000
    H19      H        0.00410    0.24650    0.44300    1.000
    C119     C        0.07008    0.29200    0.52600    1.000
    C120     C        0.07022    0.33290    0.59450    1.000
    H20      H        0.11520    0.34490    0.61920    1.000
    C121     C        0.00450    0.35630    0.62700    1.000
    C122     C        0.93863    0.33880    0.59090    1.000
    H21      H        0.89370    0.35470    0.61310    1.000
    C123     C        0.93848    0.29780    0.52230    1.000
    C124     C        0.05520    0.45340    0.99720    1.000
    C125     C        0.10600    0.45800    0.05670    1.000
    C126     C        0.14524    0.49451    0.18770    1.000
    C127     C        0.16446    0.56045    0.22266    1.000
    H22      H        0.14830    0.60540    0.20060    1.000
    C128     C        0.20730    0.56067    0.28987    1.000
    C129     C        0.23092    0.49494    0.32212    1.000
    H23      H        0.26020    0.49510    0.36800    1.000
    C130     C        0.21170    0.42900    0.28720    1.000
    C131     C        0.16886    0.42878    0.21995    1.000
    H24      H        0.15570    0.38370    0.19610    1.000
    C132     C        0.93500    0.46030    0.94769    1.000
    C133     C        0.98310    0.46720    0.01030    1.000
    C134     C        0.95688    0.48710    0.08360    1.000
    C135     C        0.11739    0.49986    0.09431    1.000
    C136     C        0.16550    0.50670    0.03169    1.000
    C137     C        0.86080    0.47340    0.95838    1.000
    C138     C        0.08260    0.48210    0.13090    1.000
    C139     C        0.00880    0.49200    0.14500    1.000
    C140     C        0.99660    0.38080    0.71850    1.000
    C141     C        0.98780    0.45520    0.73280    1.000
    C142     C        0.96740    0.47920    0.80680    1.000
    C143     C        0.95560    0.42890    0.86650    1.000
    C144     C        0.96440    0.35450    0.85220    1.000
    C145     C        0.98490    0.33050    0.77820    1.000
    C146     C        0.01230    0.42060    0.68210    1.000
    C147     C        0.03150    0.39430    0.75790    1.000
    C148     C        0.95780    0.55360    0.81840    1.000
    Cu7      Cu       0.71633    0.29144    0.46098    1.000
    Cu8      Cu       0.79074    0.21639    0.35394    1.000
    C149     C        0.22760    0.35800    0.32820    1.000
    C150     C        0.22210    0.62950    0.33340    1.000
    O31      O        0.87260    0.23800    0.42090    1.000
    C151     C        0.86870    0.28050    0.48440    1.000
    O32      O        0.80890    0.30370    0.51290    1.000
    O33      O        0.13390    0.23640    0.42260    1.000
    C152     C        0.13860    0.27240    0.48360    1.000
    O34      O        0.19730    0.29530    0.51810    1.000
    O35      O        0.19770    0.68790    0.30070    1.000
    O36      O        0.20430    0.30020    0.30200    1.000
    O37      O        0.26470    0.36550    0.39340    1.000
    O38      O        0.26080    0.62650    0.39120    1.000
    O39      O        0.81320    0.47700    0.89580    1.000
    O40      O        0.94630    0.31060    0.91750    1.000
    C153     C        0.92660    0.23630    0.91140    1.000
    C154     C        0.73880    0.48260    0.90160    1.000
    C155     C        0.69490    0.54570    0.92500    1.000
    C156     C        0.89000    0.19430    0.84200    1.000
    C157     C        0.50000    0.00000    0.67060    1.000
    C158     C        0.00000    0.50000    0.67060    1.000
