# CIF file generated by openbabel 3.1.0, see https://openbabel.org
data_I
_chemical_name_common 'image0'
_cell_length_a 10.872
_cell_length_b 16.737
_cell_length_c 17.38
_cell_angle_alpha 114.48
_cell_angle_beta 92.95
_cell_angle_gamma 99.63
_space_group_name_H-M_alt 'P 1'
_space_group_name_Hall 'P 1'
loop_
    _symmetry_equiv_pos_as_xyz
    x,y,z
loop_
    _atom_site_label
    _atom_site_type_symbol
    _atom_site_fract_x
    _atom_site_fract_y
    _atom_site_fract_z
    _atom_site_occupancy
    O1       O        0.81880    0.99130    0.05150    1.000
    O2       O        0.46350    0.23820    0.03830    1.000
    O3       O        0.30430    0.17730    0.08800    1.000
    C1       C        0.41480    0.18740    0.07080    1.000
    C2       C        0.49280    0.13210    0.08950    1.000
    O4       O        0.92880    0.92690    0.88800    1.000
    La1      La       0.08260    0.14079    0.01261    1.000
    La2      La       0.37069    0.34364    0.99611    1.000
    La3      La       0.43860    0.86483    0.40578    1.000
    C3       C        0.26160    0.97360    0.64400    1.000
    O5       O        0.99260    0.25270    0.96810    1.000
    O6       O        0.61180    0.13650    0.06630    1.000
    O7       O        0.84100    0.35920    0.94700    1.000
    O8       O        0.85230    0.12260    0.04030    1.000
    O9       O        0.22600    0.16570    0.91270    1.000
    O10      O        0.60000    0.37240    0.97030    1.000
    O11      O        0.15370    0.32760    0.93180    1.000
    O12      O        0.93500    0.05200    0.87260    1.000
    O13      O        0.75910    0.96450    0.73260    1.000
    O14      O        0.37520    0.21180    0.85110    1.000
    O15      O        0.21990    0.32800    0.09360    1.000
    O16      O        0.38240    0.00200    0.54540    1.000
    O17      O        0.29610    0.48080    0.23700    1.000
    O18      O        0.62510    0.49490    0.94620    1.000
    O19      O        0.07860    0.27380    0.15580    1.000
    C4       C        0.19410    0.42010    0.23360    1.000
    C5       C        0.66200    0.42910    0.95060    1.000
    O20      O        0.30830    0.05890    0.70400    1.000
    C6       C        0.24920    0.06710    0.77430    1.000
    C7       C        0.78780    0.06140    0.05500    1.000
    C8       C        0.96070    0.36490    0.92480    1.000
    C9       C        0.66170    0.07350    0.08040    1.000
    C10      C        0.04130    0.31010    0.94380    1.000
    O21      O        0.62580    0.02210    0.63960    1.000
    O22      O        0.27410    0.86520    0.50870    1.000
    C11      C        0.16320    0.33500    0.15600    1.000
    C12      C        0.79040    0.41940    0.92820    1.000
    O23      O        0.55460    0.88020    0.53960    1.000
    C13      C        0.16940    0.98940    0.75870    1.000
    H1       H        0.11950    0.97780    0.79630    1.000
    C14      C        0.28600    0.15300    0.85020    1.000
    O24      O        0.39360    0.70700    0.38290    1.000
    C15      C        0.98190    0.42560    0.89260    1.000
    H2       H        0.05520    0.44150    0.87240    1.000
    C16      C        0.89790    0.96930    0.84800    1.000
    C17      C        0.87240    0.46060    0.89500    1.000
    H3       H        0.85970    0.50400    0.87690    1.000
    C18      C        0.61770    0.93790    0.60810    1.000
    C19      C        0.46730    0.06950    0.11900    1.000
    H4       H        0.39380    0.05430    0.13940    1.000
    C20      C        0.68910    0.90360    0.65810    1.000
    C21      C        0.81530    0.91800    0.76750    1.000
    C22      C        0.17700    0.92950    0.67440    1.000
    H5       H        0.13200    0.87070    0.64510    1.000
    C23      C        0.30890    0.94600    0.56110    1.000
    C24      C        0.78260    0.82960    0.71830    1.000
    H6       H        0.80730    0.78410    0.72880    1.000
    C25      C        0.57750    0.03040    0.11280    1.000
    H7       H        0.58860    0.98470    0.12810    1.000
    C26      C        0.20560    0.54510    0.34890    1.000
    H8       H        0.18760    0.58730    0.39980    1.000
    O25      O        0.49590    0.61830    0.28460    1.000
    C27      C        0.29940    0.55660    0.30810    1.000
    C28      C        0.70060    0.81980    0.64510    1.000
    H9       H        0.66320    0.76640    0.59840    1.000
    C29      C        0.13630    0.45620    0.30130    1.000
    H10      H        0.06460    0.42860    0.31480    1.000
    C30      C        0.40670    0.63300    0.32610    1.000
    K1       K        0.73014    0.25633    0.01824    1.000
    O26      O        0.18120    0.00870    0.94850    1.000
    O27      O        0.53650    0.76180    0.96170    1.000
    O28      O        0.69570    0.82270    0.91200    1.000
    C31      C        0.58520    0.81260    0.92920    1.000
    C32      C        0.50720    0.86790    0.91050    1.000
    O29      O        0.07120    0.07310    0.11200    1.000
    La4      La       0.91740    0.85921    0.98739    1.000
    La5      La       0.62931    0.65636    0.00389    1.000
    La6      La       0.56140    0.13517    0.59422    1.000
    C33      C        0.73840    0.02640    0.35600    1.000
    O30      O        0.00740    0.74730    0.03190    1.000
    O31      O        0.38820    0.86350    0.93370    1.000
    O32      O        0.15900    0.64080    0.05300    1.000
    O33      O        0.14770    0.87740    0.95970    1.000
    O34      O        0.77400    0.83430    0.08730    1.000
    O35      O        0.40000    0.62760    0.02970    1.000
    O36      O        0.84630    0.67240    0.06820    1.000
    O37      O        0.06500    0.94800    0.12740    1.000
    O38      O        0.24090    0.03550    0.26740    1.000
    O39      O        0.62480    0.78820    0.14890    1.000
    O40      O        0.78010    0.67200    0.90640    1.000
    O41      O        0.61760    0.99800    0.45460    1.000
    O42      O        0.70390    0.51920    0.76300    1.000
    O43      O        0.37490    0.50510    0.05380    1.000
    O44      O        0.92140    0.72620    0.84420    1.000
    C34      C        0.80590    0.57990    0.76640    1.000
    C35      C        0.33800    0.57090    0.04940    1.000
    O45      O        0.69170    0.94110    0.29600    1.000
    C36      C        0.75080    0.93290    0.22570    1.000
    C37      C        0.21220    0.93860    0.94500    1.000
    C38      C        0.03930    0.63510    0.07520    1.000
    C39      C        0.33830    0.92650    0.91960    1.000
    C40      C        0.95870    0.68990    0.05620    1.000
    O46      O        0.37420    0.97790    0.36040    1.000
    O47      O        0.72590    0.13480    0.49130    1.000
    C41      C        0.83680    0.66500    0.84400    1.000
    C42      C        0.20960    0.58060    0.07180    1.000
    O48      O        0.44540    0.11980    0.46040    1.000
    C43      C        0.83060    0.01060    0.24130    1.000
    H11      H        0.88050    0.02220    0.20370    1.000
    C44      C        0.71400    0.84700    0.14980    1.000
    O49      O        0.60640    0.29300    0.61710    1.000
    C45      C        0.01810    0.57440    0.10740    1.000
    H12      H        0.94480    0.55850    0.12760    1.000
    C46      C        0.10210    0.03070    0.15200    1.000
    C47      C        0.12760    0.53940    0.10500    1.000
    H13      H        0.14030    0.49600    0.12310    1.000
    C48      C        0.38230    0.06210    0.39190    1.000
    C49      C        0.53270    0.93050    0.88100    1.000
    H14      H        0.60620    0.94570    0.86060    1.000
    C50      C        0.31090    0.09640    0.34190    1.000
    C51      C        0.18470    0.08200    0.23250    1.000
    C52      C        0.82300    0.07050    0.32560    1.000
    H15      H        0.86800    0.12930    0.35490    1.000
    C53      C        0.69110    0.05400    0.43890    1.000
    C54      C        0.21740    0.17040    0.28170    1.000
    H16      H        0.19270    0.21590    0.27120    1.000
    C55      C        0.42250    0.96960    0.88720    1.000
    H17      H        0.41140    0.01530    0.87190    1.000
    C56      C        0.79440    0.45490    0.65110    1.000
    H18      H        0.81240    0.41270    0.60020    1.000
    O50      O        0.50410    0.38170    0.71540    1.000
    C57      C        0.70060    0.44340    0.69190    1.000
    C58      C        0.29940    0.18020    0.35490    1.000
    H19      H        0.33680    0.23360    0.40160    1.000
    C59      C        0.86370    0.54380    0.69870    1.000
    H20      H        0.93540    0.57140    0.68520    1.000
    C60      C        0.59330    0.36700    0.67390    1.000
    K2       K        0.26986    0.74367    0.98176    1.000
