# CIF file generated by openbabel 3.1.0, see https://openbabel.org
data_I
_chemical_name_common 'TORJER_clean'
_cell_length_a 10.932
_cell_length_b 16.713
_cell_length_c 18.893
_cell_angle_alpha 90
_cell_angle_beta 90
_cell_angle_gamma 90
_space_group_name_H-M_alt 'P 1'
_space_group_name_Hall 'P 1'
loop_
    _symmetry_equiv_pos_as_xyz
    x,y,z
loop_
    _atom_site_label
    _atom_site_type_symbol
    _atom_site_fract_x
    _atom_site_fract_y
    _atom_site_fract_z
    _atom_site_occupancy
    Tb1      Tb       0.29423    0.25000    0.70461    1.000
    Tb2      Tb       0.20577    0.75000    0.20461    1.000
    Tb3      Tb       0.70577    0.75000    0.29539    1.000
    Tb4      Tb       0.79423    0.25000    0.79539    1.000
    H1       H        0.53850    0.01040    0.81900    1.000
    H2       H        0.48050    0.32790    0.95820    1.000
    H3       H        0.97430    0.75000    0.91350    1.000
    H4       H        0.97140    0.89340    0.63520    1.000
    H5       H        0.24980    0.04680    0.51260    1.000
    H6       H        0.96150    0.98960    0.31900    1.000
    H7       H        0.32180    0.07060    0.96260    1.000
    H8       H        0.36400    0.25000    0.20690    1.000
    H9       H        0.74980    0.45320    0.98740    1.000
    H10      H        0.67820    0.92940    0.03740    1.000
    H11      H        0.17820    0.57060    0.46260    1.000
    H12      H        0.52860    0.39340    0.13520    1.000
    H13      H        0.25020    0.95320    0.01260    1.000
    H14      H        0.51950    0.82790    0.04180    1.000
    H15      H        0.53850    0.48960    0.81900    1.000
    H16      H        0.07470    0.32090    0.47950    1.000
    H17      H        0.46150    0.98960    0.18100    1.000
    H18      H        0.47430    0.75000    0.58650    1.000
    H19      H        0.82180    0.42940    0.53740    1.000
    H20      H        0.51950    0.67210    0.04180    1.000
    H21      H        0.07470    0.17910    0.47950    1.000
    H22      H        0.01950    0.67210    0.45820    1.000
    H23      H        0.96440    0.25000    0.96960    1.000
    H24      H        0.32180    0.42940    0.96260    1.000
    H25      H        0.98050    0.17210    0.54180    1.000
    H26      H        0.82180    0.07060    0.53740    1.000
    H27      H        0.46150    0.51040    0.18100    1.000
    H28      H        0.52860    0.10660    0.13520    1.000
    H29      H        0.98050    0.32790    0.54180    1.000
    H30      H        0.57470    0.17910    0.02050    1.000
    H31      H        0.46440    0.25000    0.53040    1.000
    H32      H        0.42530    0.67910    0.97950    1.000
    H33      H        0.96150    0.51040    0.31900    1.000
    H34      H        0.01950    0.82790    0.45820    1.000
    H35      H        0.63600    0.75000    0.79310    1.000
    H36      H        0.67820    0.57060    0.03740    1.000
    H37      H        0.03560    0.75000    0.03040    1.000
    H38      H        0.03850    0.01040    0.68100    1.000
    H39      H        0.24980    0.45320    0.51260    1.000
    H40      H        0.03850    0.48960    0.68100    1.000
    H41      H        0.25020    0.54680    0.01260    1.000
    H42      H        0.02860    0.10660    0.36480    1.000
    H43      H        0.74980    0.04680    0.98740    1.000
    H44      H        0.86400    0.25000    0.29310    1.000
    H45      H        0.48050    0.17210    0.95820    1.000
    H46      H        0.57470    0.32090    0.02050    1.000
    H47      H        0.47140    0.89340    0.86480    1.000
    H48      H        0.18350    0.75000    0.40920    1.000
    H49      H        0.02570    0.25000    0.08650    1.000
    H50      H        0.75020    0.95320    0.48740    1.000
    H51      H        0.42530    0.82090    0.97950    1.000
    H52      H        0.52570    0.25000    0.41350    1.000
    H53      H        0.13600    0.75000    0.70690    1.000
    H54      H        0.17820    0.92940    0.46260    1.000
    H55      H        0.02860    0.39340    0.36480    1.000
    H56      H        0.81650    0.25000    0.59080    1.000
    H57      H        0.53560    0.75000    0.46960    1.000
    H58      H        0.92530    0.67910    0.52050    1.000
    H59      H        0.47140    0.60660    0.86480    1.000
    H60      H        0.75020    0.54680    0.48740    1.000
    H61      H        0.97140    0.60660    0.63520    1.000
    H62      H        0.92530    0.82090    0.52050    1.000
    H63      H        0.68350    0.75000    0.09080    1.000
    H64      H        0.31650    0.25000    0.90920    1.000
    C1       C        0.89960    0.75000    0.14700    1.000
    C2       C        0.97440    0.42480    0.39070    1.000
    C3       C        0.69190    0.48360    0.96340    1.000
    C4       C        0.06350    0.89950    0.54210    1.000
    C5       C        0.29450    0.75000    0.57030    1.000
    C6       C        0.43310    0.49430    0.13680    1.000
    C7       C        0.74240    0.75000    0.05530    1.000
    C8       C        0.06690    0.50570    0.63680    1.000
    C9       C        0.35080    0.05430    0.00660    1.000
    C10      C        0.14960    0.45790    0.60180    1.000
    C11      C        0.80780    0.88150    0.36830    1.000
    C12      C        0.56350    0.60050    0.95790    1.000
    C13      C        0.74100    0.25000    0.35210    1.000
    C14      C        0.36320    0.75000    0.42800    1.000
    C15      C        0.69190    0.01640    0.96340    1.000
    C16      C        0.85080    0.44570    0.49340    1.000
    C17      C        0.06690    0.99430    0.63680    1.000
    C18      C        0.41520    0.75000    0.55110    1.000
    C19      C        0.80810    0.51640    0.46340    1.000
    C20      C        0.06350    0.60050    0.54210    1.000
    C21      C        0.97440    0.07520    0.39070    1.000
    C22      C        0.93650    0.39950    0.45790    1.000
    C23      C        0.51170    0.82460    0.99080    1.000
    C24      C        0.48830    0.32460    0.00920    1.000
    C25      C        0.80810    0.98360    0.46340    1.000
    C26      C        0.30810    0.98360    0.03660    1.000
    C27      C        0.80780    0.61850    0.36830    1.000
    C28      C        0.04710    0.25000    0.98110    1.000
    C29      C        0.14920    0.94570    0.50660    1.000
    C30      C        0.91520    0.75000    0.94890    1.000
    C31      C        0.39960    0.75000    0.35300    1.000
    C32      C        0.56350    0.89950    0.95790    1.000
    C33      C        0.30810    0.51640    0.03660    1.000
    C34      C        0.19190    0.01640    0.53660    1.000
    C35      C        0.43650    0.10050    0.04210    1.000
    C36      C        0.93650    0.10050    0.45790    1.000
    C37      C        0.98830    0.17540    0.49080    1.000
    C38      C        0.69220    0.11850    0.86830    1.000
    C39      C        0.47440    0.42480    0.10930    1.000
    C40      C        0.02560    0.92480    0.60930    1.000
    C41      C        0.13680    0.25000    0.92800    1.000
    C42      C        0.35040    0.95790    0.10180    1.000
    C43      C        0.64960    0.04210    0.89820    1.000
    C44      C        0.24100    0.25000    0.14790    1.000
    C45      C        0.35080    0.44570    0.00660    1.000
    C46      C        0.93310    0.00570    0.36320    1.000
    C47      C        0.70670    0.75000    0.98160    1.000
    C48      C        0.75900    0.75000    0.85210    1.000
    C49      C        0.64960    0.45790    0.89820    1.000
    C50      C        0.30780    0.88150    0.13170    1.000
    C51      C        0.35040    0.54210    0.10180    1.000
    C52      C        0.56690    0.50570    0.86320    1.000
    C53      C        0.01170    0.82460    0.50920    1.000
    C54      C        0.54710    0.25000    0.51890    1.000
    C55      C        0.48830    0.17540    0.00920    1.000
    C56      C        0.70550    0.25000    0.42970    1.000
    C57      C        0.19220    0.38150    0.63170    1.000
    C58      C        0.30780    0.61850    0.13170    1.000
    C59      C        0.93310    0.49430    0.36320    1.000
    C60      C        0.75760    0.25000    0.55530    1.000
    C61      C        0.64920    0.55430    0.99340    1.000
    C62      C        0.43650    0.39950    0.04210    1.000
    C63      C        0.79330    0.25000    0.48160    1.000
    C64      C        0.08480    0.25000    0.05110    1.000
    C65      C        0.98830    0.32460    0.49080    1.000
    C66      C        0.02560    0.57520    0.60930    1.000
    C67      C        0.47440    0.07520    0.10930    1.000
    C68      C        0.56690    0.99430    0.86320    1.000
    C69      C        0.79450    0.75000    0.92970    1.000
    C70      C        0.20670    0.75000    0.51840    1.000
    C71      C        0.25900    0.75000    0.64790    1.000
    C72      C        0.24240    0.75000    0.44470    1.000
    C73      C        0.14920    0.55430    0.50660    1.000
    C74      C        0.86320    0.75000    0.07200    1.000
    C75      C        0.51170    0.67540    0.99080    1.000
    C76      C        0.43310    0.00570    0.13680    1.000
    C77      C        0.25760    0.25000    0.94470    1.000
    C78      C        0.29330    0.25000    0.01840    1.000
    C79      C        0.01170    0.67540    0.50920    1.000
    C80      C        0.64920    0.94570    0.99340    1.000
    C81      C        0.52560    0.57520    0.89070    1.000
    C82      C        0.69220    0.38150    0.86830    1.000
    C83      C        0.85040    0.95790    0.39820    1.000
    C84      C        0.60040    0.25000    0.64700    1.000
    C85      C        0.14960    0.04210    0.60180    1.000
    C86      C        0.58480    0.25000    0.44890    1.000
    C87      C        0.19220    0.11850    0.63170    1.000
    C88      C        0.19190    0.48360    0.53660    1.000
    C89      C        0.45290    0.75000    0.48110    1.000
    C90      C        0.52560    0.92480    0.89070    1.000
    C91      C        0.10040    0.25000    0.85300    1.000
    C92      C        0.20550    0.25000    0.07030    1.000
    C93      C        0.95290    0.75000    0.01890    1.000
    C94      C        0.85040    0.54210    0.39820    1.000
    C95      C        0.63680    0.25000    0.57200    1.000
    C96      C        0.85080    0.05430    0.49340    1.000
    N1       N        0.42440    0.25000    0.03500    1.000
    N2       N        0.92440    0.25000    0.46500    1.000
    N3       N        0.57560    0.75000    0.96500    1.000
    N4       N        0.07560    0.75000    0.53500    1.000
    O1       O        0.65920    0.25000    0.30740    1.000
    O2       O        0.15920    0.25000    0.19260    1.000
    O3       O        0.35600    0.25000    0.16380    1.000
    O4       O        0.21470    0.84670    0.10810    1.000
    O5       O        0.68530    0.25000    0.69300    1.000
    O6       O        0.98890    0.25000    0.83620    1.000
    O7       O        0.71470    0.84670    0.39190    1.000
    O8       O        0.13710    0.35020    0.68380    1.000
    O9       O        0.86290    0.85020    0.31620    1.000
    O10      O        0.36290    0.64980    0.18380    1.000
    O11      O        0.64400    0.75000    0.83620    1.000
    O12      O        0.18530    0.25000    0.80700    1.000
    O13      O        0.48890    0.25000    0.66380    1.000
    O14      O        0.86290    0.64980    0.31620    1.000
    O15      O        0.85600    0.25000    0.33620    1.000
    O16      O        0.78530    0.15330    0.89190    1.000
    O17      O        0.78530    0.34670    0.89190    1.000
    O18      O        0.28530    0.34670    0.60810    1.000
    O19      O        0.01110    0.75000    0.16380    1.000
    O20      O        0.14400    0.75000    0.66380    1.000
    O21      O        0.31470    0.75000    0.30700    1.000
    O22      O        0.63710    0.14980    0.81620    1.000
    O23      O        0.34080    0.75000    0.69260    1.000
    O24      O        0.84080    0.75000    0.80740    1.000
    O25      O        0.36290    0.85020    0.18380    1.000
    O26      O        0.21470    0.65330    0.10810    1.000
    O27      O        0.71470    0.65330    0.39190    1.000
    O28      O        0.13710    0.14980    0.68380    1.000
    O29      O        0.81470    0.75000    0.19300    1.000
    O30      O        0.28530    0.15330    0.60810    1.000
    O31      O        0.51110    0.75000    0.33620    1.000
    O32      O        0.63710    0.35020    0.81620    1.000
