# CIF file generated by openbabel 3.1.0, see https://openbabel.org
data_I
_chemical_name_common 'VAZMAM_clean'
_cell_length_a 9.9134
_cell_length_b 9.9134
_cell_length_c 13.4046
_cell_angle_alpha 85.3916
_cell_angle_beta 70.1258
_cell_angle_gamma 115.575
_space_group_name_H-M_alt 'P 1'
_space_group_name_Hall 'P 1'
loop_
    _symmetry_equiv_pos_as_xyz
    x,y,z
loop_
    _atom_site_label
    _atom_site_type_symbol
    _atom_site_fract_x
    _atom_site_fract_y
    _atom_site_fract_z
    _atom_site_occupancy
    Tb1      Tb       0.26536    0.53866    0.00252    1.000
    Tb2      Tb       0.04118    0.26788    0.49748    1.000
    Tb3      Tb       0.73464    0.46134    0.99748    1.000
    Tb4      Tb       0.95882    0.73212    0.50252    1.000
    H1       H        0.98830    0.05310    0.14680    1.000
    H2       H        0.82000    0.76240    0.17900    1.000
    H3       H        0.69990    0.13510    0.35320    1.000
    H4       H        0.44140    0.99900    0.32100    1.000
    H5       H        0.01170    0.94690    0.85320    1.000
    H6       H        0.18000    0.23760    0.82100    1.000
    H7       H        0.30010    0.86490    0.64680    1.000
    H8       H        0.55860    0.00100    0.67900    1.000
    C1       C        0.88100    0.23070    0.03850    1.000
    C2       C        0.68810    0.81770    0.11020    1.000
    C3       C        0.89910    0.00200    0.12950    1.000
    C4       C        0.55880    0.67680    0.09880    1.000
    C5       C        0.80470    0.83900    0.14770    1.000
    C6       C        0.06540    0.40940    0.26560    1.000
    C7       C        0.83460    0.06770    0.08290    1.000
    C8       C        0.76920    0.91950    0.46150    1.000
    C9       C        0.42790    0.79830    0.38980    1.000
    C10      C        0.63150    0.02860    0.37050    1.000
    C11      C        0.27560    0.65760    0.40120    1.000
    C12      C        0.48670    0.95240    0.35230    1.000
    C13      C        0.17500    0.33100    0.23440    1.000
    C14      C        0.65060    0.91750    0.41710    1.000
    C15      C        0.11900    0.76930    0.96150    1.000
    C16      C        0.31190    0.18230    0.88980    1.000
    C17      C        0.10090    0.99800    0.87050    1.000
    C18      C        0.44120    0.32320    0.90120    1.000
    C19      C        0.19530    0.16100    0.85230    1.000
    C20      C        0.93460    0.59060    0.73440    1.000
    C21      C        0.16540    0.93230    0.91710    1.000
    C22      C        0.23080    0.08050    0.53850    1.000
    C23      C        0.57210    0.20170    0.61020    1.000
    C24      C        0.36850    0.97140    0.62950    1.000
    C25      C        0.72440    0.34240    0.59880    1.000
    C26      C        0.51330    0.04760    0.64770    1.000
    C27      C        0.82500    0.66900    0.76560    1.000
    C28      C        0.34940    0.08250    0.58290    1.000
    O1       O        0.01030    0.33420    0.03810    1.000
    O2       O        0.78700    0.25360    0.00400    1.000
    O3       O        0.07540    0.49770    0.18810    1.000
    O4       O        0.58090    0.56220    0.09950    1.000
    O5       O        0.70120    0.95630    0.07150    1.000
    O6       O        0.44120    0.68360    0.08880    1.000
    O7       O        0.97260    0.37460    0.36460    1.000
    O8       O        0.87230    0.04840    0.46190    1.000
    O9       O        0.75760    0.79100    0.49600    1.000
    O10      O        0.18580    0.26350    0.31190    1.000
    O11      O        0.16170    0.68040    0.40050    1.000
    O12      O        0.52780    0.77270    0.42850    1.000
    O13      O        0.27240    0.53000    0.41120    1.000
    O14      O        0.23920    0.33720    0.13540    1.000
    O15      O        0.98970    0.66580    0.96190    1.000
    O16      O        0.21300    0.74640    0.99600    1.000
    O17      O        0.92460    0.50230    0.81190    1.000
    O18      O        0.41910    0.43780    0.90050    1.000
    O19      O        0.29880    0.04370    0.92850    1.000
    O20      O        0.55880    0.31640    0.91120    1.000
    O21      O        0.02740    0.62540    0.63540    1.000
    O22      O        0.12770    0.95160    0.53810    1.000
    O23      O        0.24240    0.20900    0.50400    1.000
    O24      O        0.81420    0.73650    0.68810    1.000
    O25      O        0.83830    0.31960    0.59950    1.000
    O26      O        0.47220    0.22730    0.57150    1.000
    O27      O        0.72760    0.47000    0.58880    1.000
    O28      O        0.76080    0.66280    0.86460    1.000
