# CIF file generated by openbabel 3.1.0, see https://openbabel.org
data_I
_chemical_name_common 'image0'
_cell_length_a 10.406
_cell_length_b 27.2442
_cell_length_c 13.1722
_cell_angle_alpha 90
_cell_angle_beta 102.395
_cell_angle_gamma 90
_space_group_name_H-M_alt 'P 1'
_space_group_name_Hall 'P 1'
loop_
    _symmetry_equiv_pos_as_xyz
    x,y,z
loop_
    _atom_site_label
    _atom_site_type_symbol
    _atom_site_fract_x
    _atom_site_fract_y
    _atom_site_fract_z
    _atom_site_occupancy
    Cd1      Cd       0.02664    0.07005    0.38025    1.000
    Cd2      Cd       0.26989    0.88271    0.80240    1.000
    Cd3      Cd       0.22885    0.18832    0.15920    1.000
    Si1      Si       0.65068    0.04853    0.81434    1.000
    O1       O        0.67310    0.23202    0.68270    1.000
    O2       O        0.62350    0.28386    0.79290    1.000
    O3       O        0.39030    0.20450    0.07460    1.000
    O4       O        0.52370    0.14437    0.14880    1.000
    O5       O        0.04990    0.15710    0.04500    1.000
    O6       O        0.22490    0.11033    0.07690    1.000
    O7       O        0.23900    0.95432    0.88820    1.000
    O8       O        0.05870    0.92446    0.78870    1.000
    O9       O        0.87340    0.07113    0.47760    1.000
    O10      O        0.71210    0.07120    0.33630    1.000
    O11      O        0.24990    0.07545    0.37190    1.000
    O12      O        0.20220    0.04967    0.51670    1.000
    C1       C        0.56710    0.99708    0.86650    1.000
    H1       H        0.58260    0.99960    0.94090    1.000
    H2       H        0.60140    0.96640    0.84790    1.000
    H3       H        0.47430    0.99860    0.83780    1.000
    C2       C        0.60070    0.11004    0.85530    1.000
    C3       C        0.62290    0.15127    0.79760    1.000
    H4       H        0.65560    0.14660    0.73790    1.000
    C4       C        0.59770    0.19876    0.82640    1.000
    C5       C        0.54570    0.20595    0.91440    1.000
    H5       H        0.52520    0.23740    0.93310    1.000
    C6       C        0.52450    0.16583    0.97410    1.000
    C7       C        0.55310    0.11871    0.94450    1.000
    H6       H        0.53990    0.09220    0.98570    1.000
    C8       C        0.47690    0.17231    0.07310    1.000
    C9       C        0.63170    0.24054    0.76330    1.000
    C10      C        0.83470    0.04512    0.85830    1.000
    C11      C        0.90460    0.08272    0.91900    1.000
    H7       H        0.85970    0.11050    0.93320    1.000
    C12      C        0.03900    0.07936    0.95830    1.000
    C13      C        0.10830    0.03902    0.93460    1.000
    H8       H        0.19870    0.03700    0.96010    1.000
    C14      C        0.04260    0.00161    0.87300    1.000
    C15      C        0.90660    0.00445    0.83620    1.000
    H9       H        0.86280    0.97890    0.79640    1.000
    C16      C        0.10950    0.11780    0.03050    1.000
    C17      C        0.11870    0.95823    0.84850    1.000
    C18      C        0.60320    0.05079    0.66900    1.000
    C19      C        0.69440    0.05741    0.60620    1.000
    H10      H        0.78370    0.05790    0.63670    1.000
    C20      C        0.65510    0.06324    0.49960    1.000
    C21      C        0.52180    0.06346    0.45320    1.000
    H11      H        0.49490    0.06700    0.38150    1.000
    C22      C        0.42930    0.05846    0.51390    1.000
    C23      C        0.46950    0.05117    0.62040    1.000
    H12      H        0.40670    0.04650    0.66010    1.000
    C24      C        0.75310    0.06909    0.43180    1.000
    C25      C        0.28540    0.06106    0.46470    1.000
    Cd4      Cd       0.47336    0.57005    0.11975    1.000
    Cd5      Cd       0.23011    0.38271    0.69760    1.000
    Cd6      Cd       0.27115    0.68832    0.34080    1.000
    Si2      Si       0.84932    0.54853    0.68566    1.000
    O13      O        0.82690    0.73202    0.81730    1.000
    O14      O        0.87650    0.78386    0.70710    1.000
    O15      O        0.10970    0.70450    0.42540    1.000
    O16      O        0.97630    0.64437    0.35120    1.000
    O17      O        0.45010    0.65710    0.45500    1.000
    O18      O        0.27510    0.61033    0.42310    1.000
    O19      O        0.26100    0.45432    0.61180    1.000
    O20      O        0.44130    0.42446    0.71130    1.000
    O21      O        0.62660    0.57113    0.02240    1.000
    O22      O        0.78790    0.57120    0.16370    1.000
    O23      O        0.25010    0.57545    0.12810    1.000
    O24      O        0.29780    0.54967    0.98330    1.000
    C26      C        0.93290    0.49708    0.63350    1.000
    H13      H        0.91740    0.49960    0.55910    1.000
    H14      H        0.89860    0.46640    0.65210    1.000
    H15      H        0.02570    0.49860    0.66220    1.000
    C27      C        0.89930    0.61004    0.64470    1.000
    C28      C        0.87710    0.65127    0.70240    1.000
    H16      H        0.84440    0.64660    0.76210    1.000
    C29      C        0.90230    0.69876    0.67360    1.000
    C30      C        0.95430    0.70595    0.58560    1.000
    H17      H        0.97480    0.73740    0.56690    1.000
    C31      C        0.97550    0.66583    0.52590    1.000
    C32      C        0.94690    0.61871    0.55550    1.000
    H18      H        0.96010    0.59220    0.51430    1.000
    C33      C        0.02310    0.67231    0.42690    1.000
    C34      C        0.86830    0.74054    0.73670    1.000
    C35      C        0.66530    0.54512    0.64170    1.000
    C36      C        0.59540    0.58272    0.58100    1.000
    H19      H        0.64030    0.61050    0.56680    1.000
    C37      C        0.46100    0.57936    0.54170    1.000
    C38      C        0.39170    0.53902    0.56540    1.000
    H20      H        0.30130    0.53700    0.53990    1.000
    C39      C        0.45740    0.50161    0.62700    1.000
    C40      C        0.59340    0.50445    0.66380    1.000
    H21      H        0.63720    0.47890    0.70360    1.000
    C41      C        0.39050    0.61780    0.46950    1.000
    C42      C        0.38130    0.45823    0.65150    1.000
    C43      C        0.89680    0.55079    0.83100    1.000
    C44      C        0.80560    0.55741    0.89380    1.000
    H22      H        0.71630    0.55790    0.86330    1.000
    C45      C        0.84490    0.56324    0.00040    1.000
    C46      C        0.97820    0.56346    0.04680    1.000
    H23      H        0.00510    0.56700    0.11850    1.000
    C47      C        0.07070    0.55846    0.98610    1.000
    C48      C        0.03050    0.55117    0.87960    1.000
    H24      H        0.09330    0.54650    0.83990    1.000
    C49      C        0.74690    0.56909    0.06820    1.000
    C50      C        0.21460    0.56106    0.03530    1.000
    Cd7      Cd       0.97336    0.92995    0.61975    1.000
    Cd8      Cd       0.73011    0.11729    0.19760    1.000
    Cd9      Cd       0.77115    0.81168    0.84080    1.000
    Si3      Si       0.34932    0.95147    0.18566    1.000
    O25      O        0.32690    0.76798    0.31730    1.000
    O26      O        0.37650    0.71614    0.20710    1.000
    O27      O        0.60970    0.79550    0.92540    1.000
    O28      O        0.47630    0.85563    0.85120    1.000
    O29      O        0.95010    0.84290    0.95500    1.000
    O30      O        0.77510    0.88967    0.92310    1.000
    O31      O        0.76100    0.04568    0.11180    1.000
    O32      O        0.94130    0.07554    0.21130    1.000
    O33      O        0.12660    0.92887    0.52240    1.000
    O34      O        0.28790    0.92880    0.66370    1.000
    O35      O        0.75010    0.92455    0.62810    1.000
    O36      O        0.79780    0.95033    0.48330    1.000
    C51      C        0.43290    0.00292    0.13350    1.000
    H25      H        0.41740    0.00040    0.05910    1.000
    H26      H        0.39860    0.03360    0.15210    1.000
    H27      H        0.52570    0.00140    0.16220    1.000
    C52      C        0.39930    0.88996    0.14470    1.000
    C53      C        0.37710    0.84873    0.20240    1.000
    H28      H        0.34440    0.85340    0.26210    1.000
    C54      C        0.40230    0.80124    0.17360    1.000
    C55      C        0.45430    0.79405    0.08560    1.000
    H29      H        0.47480    0.76260    0.06690    1.000
    C56      C        0.47550    0.83417    0.02590    1.000
    C57      C        0.44690    0.88129    0.05550    1.000
    H30      H        0.46010    0.90780    0.01430    1.000
    C58      C        0.52310    0.82769    0.92690    1.000
    C59      C        0.36830    0.75946    0.23670    1.000
    C60      C        0.16530    0.95488    0.14170    1.000
    C61      C        0.09540    0.91728    0.08100    1.000
    H31      H        0.14030    0.88950    0.06680    1.000
    C62      C        0.96100    0.92064    0.04170    1.000
    C63      C        0.89170    0.96098    0.06540    1.000
    H32      H        0.80130    0.96300    0.03990    1.000
    C64      C        0.95740    0.99839    0.12700    1.000
    C65      C        0.09340    0.99555    0.16380    1.000
    H33      H        0.13720    0.02110    0.20360    1.000
    C66      C        0.89050    0.88220    0.96950    1.000
    C67      C        0.88130    0.04177    0.15150    1.000
    C68      C        0.39680    0.94921    0.33100    1.000
    C69      C        0.30560    0.94259    0.39380    1.000
    H34      H        0.21630    0.94210    0.36330    1.000
    C70      C        0.34490    0.93676    0.50040    1.000
    C71      C        0.47820    0.93654    0.54680    1.000
    H35      H        0.50510    0.93300    0.61850    1.000
    C72      C        0.57070    0.94154    0.48610    1.000
    C73      C        0.53050    0.94883    0.37960    1.000
    H36      H        0.59330    0.95350    0.33990    1.000
    C74      C        0.24690    0.93091    0.56820    1.000
    C75      C        0.71460    0.93894    0.53530    1.000
    Cd10     Cd       0.52664    0.42995    0.88025    1.000
    Cd11     Cd       0.76989    0.61729    0.30240    1.000
    Cd12     Cd       0.72885    0.31168    0.65920    1.000
    Si4      Si       0.15068    0.45147    0.31434    1.000
    O37      O        0.17310    0.26798    0.18270    1.000
    O38      O        0.12350    0.21614    0.29290    1.000
    O39      O        0.89030    0.29550    0.57460    1.000
    O40      O        0.02370    0.35563    0.64880    1.000
    O41      O        0.54990    0.34290    0.54500    1.000
    O42      O        0.72490    0.38967    0.57690    1.000
    O43      O        0.73900    0.54568    0.38820    1.000
    O44      O        0.55870    0.57554    0.28870    1.000
    O45      O        0.37340    0.42887    0.97760    1.000
    O46      O        0.21210    0.42880    0.83630    1.000
    O47      O        0.74990    0.42455    0.87190    1.000
    O48      O        0.70220    0.45033    0.01670    1.000
    C76      C        0.06710    0.50292    0.36650    1.000
    H37      H        0.08260    0.50040    0.44090    1.000
    H38      H        0.10140    0.53360    0.34790    1.000
    H39      H        0.97430    0.50140    0.33780    1.000
    C77      C        0.10070    0.38996    0.35530    1.000
    C78      C        0.12290    0.34873    0.29760    1.000
    H40      H        0.15560    0.35340    0.23790    1.000
    C79      C        0.09770    0.30124    0.32640    1.000
    C80      C        0.04570    0.29405    0.41440    1.000
    H41      H        0.02520    0.26260    0.43310    1.000
    C81      C        0.02450    0.33417    0.47410    1.000
    C82      C        0.05310    0.38129    0.44450    1.000
    H42      H        0.03990    0.40780    0.48570    1.000
    C83      C        0.97690    0.32769    0.57310    1.000
    C84      C        0.13170    0.25946    0.26330    1.000
    C85      C        0.33470    0.45488    0.35830    1.000
    C86      C        0.40460    0.41728    0.41900    1.000
    H43      H        0.35970    0.38950    0.43320    1.000
    C87      C        0.53900    0.42064    0.45830    1.000
    C88      C        0.60830    0.46098    0.43460    1.000
    H44      H        0.69870    0.46300    0.46010    1.000
    C89      C        0.54260    0.49839    0.37300    1.000
    C90      C        0.40660    0.49555    0.33620    1.000
    H45      H        0.36280    0.52110    0.29640    1.000
    C91      C        0.60950    0.38220    0.53050    1.000
    C92      C        0.61870    0.54177    0.34850    1.000
    C93      C        0.10320    0.44921    0.16900    1.000
    C94      C        0.19440    0.44259    0.10620    1.000
    H46      H        0.28370    0.44210    0.13670    1.000
    C95      C        0.15510    0.43676    0.99960    1.000
    C96      C        0.02180    0.43654    0.95320    1.000
    H47      H        0.99490    0.43300    0.88150    1.000
    C97      C        0.92930    0.44154    0.01390    1.000
    C98      C        0.96950    0.44883    0.12040    1.000
    H48      H        0.90670    0.45350    0.16010    1.000
    C99      C        0.25310    0.43091    0.93180    1.000
    C100     C        0.78540    0.43894    0.96470    1.000
