# CIF file generated by openbabel 3.1.0, see https://openbabel.org
data_I
_chemical_name_common 'ULUPUM01_clean'
_cell_length_a 6.822
_cell_length_b 9.97
_cell_length_c 10.9102
_cell_angle_alpha 90
_cell_angle_beta 90
_cell_angle_gamma 90
_space_group_name_H-M_alt 'P 1'
_space_group_name_Hall 'P 1'
loop_
    _symmetry_equiv_pos_as_xyz
    x,y,z
loop_
    _atom_site_label
    _atom_site_type_symbol
    _atom_site_fract_x
    _atom_site_fract_y
    _atom_site_fract_z
    _atom_site_occupancy
    Co1      Co       0.14164    0.70302    0.29004    1.000
    Co2      Co       0.35836    0.29698    0.79004    1.000
    Co3      Co       0.85836    0.20302    0.20996    1.000
    Co4      Co       0.64164    0.79698    0.70996    1.000
    H1       H        0.62600    0.62500    0.42060    1.000
    H2       H        0.47000    0.58600    0.50900    1.000
    H3       H        0.45100    0.39700    0.31020    1.000
    H4       H        0.33600    0.41800    0.42860    1.000
    H5       H        0.87400    0.37500    0.92060    1.000
    H6       H        0.03000    0.41400    0.00900    1.000
    H7       H        0.04900    0.60300    0.81020    1.000
    H8       H        0.16400    0.58200    0.92860    1.000
    H9       H        0.37400    0.12500    0.07940    1.000
    H10      H        0.53000    0.08600    0.99100    1.000
    H11      H        0.54900    0.89700    0.18980    1.000
    H12      H        0.66400    0.91800    0.07140    1.000
    H13      H        0.12600    0.87500    0.57940    1.000
    H14      H        0.97000    0.91400    0.49100    1.000
    H15      H        0.95100    0.10300    0.68980    1.000
    H16      H        0.83600    0.08200    0.57140    1.000
    C1       C        0.45440    0.78330    0.44811    1.000
    C2       C        0.49950    0.63475    0.43512    1.000
    C3       C        0.34130    0.44302    0.34464    1.000
    C4       C        0.15020    0.41557    0.27613    1.000
    C5       C        0.04560    0.21670    0.94811    1.000
    C6       C        0.00050    0.36525    0.93512    1.000
    C7       C        0.15870    0.55698    0.84464    1.000
    C8       C        0.34980    0.58443    0.77613    1.000
    C9       C        0.54560    0.28330    0.05189    1.000
    C10      C        0.50050    0.13475    0.06488    1.000
    C11      C        0.65870    0.94302    0.15536    1.000
    C12      C        0.84980    0.91557    0.22387    1.000
    C13      C        0.95440    0.71670    0.55189    1.000
    C14      C        0.99950    0.86525    0.56488    1.000
    C15      C        0.84130    0.05698    0.65536    1.000
    C16      C        0.65020    0.08443    0.72387    1.000
    O1       O        0.33669    0.83676    0.37259    1.000
    O2       O        0.53659    0.84711    0.53243    1.000
    O3       O        0.04806    0.51017    0.23843    1.000
    O4       O        0.11078    0.29178    0.26394    1.000
    O5       O        0.38461    0.58238    0.33661    1.000
    O6       O        0.16331    0.16324    0.87259    1.000
    O7       O        0.96341    0.15289    0.03243    1.000
    O8       O        0.45194    0.48983    0.73843    1.000
    O9       O        0.38922    0.70822    0.76394    1.000
    O10      O        0.11539    0.41762    0.83661    1.000
    O11      O        0.66331    0.33676    0.12741    1.000
    O12      O        0.46341    0.34711    0.96757    1.000
    O13      O        0.95194    0.01017    0.26157    1.000
    O14      O        0.88922    0.79178    0.23606    1.000
    O15      O        0.61539    0.08238    0.16339    1.000
    O16      O        0.83669    0.66324    0.62741    1.000
    O17      O        0.03659    0.65289    0.46757    1.000
    O18      O        0.54806    0.98983    0.76157    1.000
    O19      O        0.61078    0.20822    0.73606    1.000
    O20      O        0.88461    0.91762    0.66339    1.000
