# CIF file generated by openbabel 3.1.0, see https://openbabel.org
data_I
_chemical_name_common 'image0'
_cell_length_a 36.4616
_cell_length_b 19.2841
_cell_length_c 16.0675
_cell_angle_alpha 90
_cell_angle_beta 95.679
_cell_angle_gamma 90
_space_group_name_H-M_alt 'P 1'
_space_group_name_Hall 'P 1'
loop_
    _symmetry_equiv_pos_as_xyz
    x,y,z
loop_
    _atom_site_label
    _atom_site_type_symbol
    _atom_site_fract_x
    _atom_site_fract_y
    _atom_site_fract_z
    _atom_site_occupancy
    N1       N        0.28881    0.13820    0.07110    1.000
    N2       N        0.29700    0.81510    0.39990    1.000
    C1       C        0.44740    0.93700    0.91900    1.000
    H1       H        0.43840    0.89550    0.93830    1.000
    C2       C        0.47330    0.93750    0.86260    1.000
    H2       H        0.48230    0.89600    0.84310    1.000
    C3       C        0.30560    0.09140    0.09600    1.000
    C4       C        0.31500    0.84540    0.35990    1.000
    B1       B        0.43660    0.84160    0.11220    1.000
    H3       H        0.44750    0.89110    0.09120    1.000
    C5       C        0.23170    0.20040    0.04300    1.000
    H4       H        0.21990    0.16670    0.07210    1.000
    C6       C        0.26920    0.19590    0.03550    1.000
    B2       B        0.38900    0.81100    0.07620    1.000
    H5       H        0.36970    0.84050    0.03250    1.000
    C7       C        0.28780    0.24460    0.99320    1.000
    H6       H        0.31300    0.24040    0.98930    1.000
    C8       C        0.27330    0.78190    0.45150    1.000
    C9       C        0.28590    0.76410    0.53130    1.000
    H7       H        0.31010    0.77370    0.55170    1.000
    B3       B        0.37340    0.75420    0.16020    1.000
    H8       H        0.34420    0.74760    0.17010    1.000
    B4       B        0.41160    0.74900    0.24640    1.000
    H9       H        0.40670    0.73860    0.31170    1.000
    C10      C        0.23750    0.76830    0.41830    1.000
    H10      H        0.22940    0.78060    0.36360    1.000
    B5       B        0.42870    0.77140    0.04210    1.000
    H11      H        0.43440    0.77690    0.97650    1.000
    B6       B        0.45090    0.80390    0.21770    1.000
    H12      H        0.47080    0.82850    0.26450    1.000
    B7       B        0.39140    0.72060    0.07100    1.000
    H13      H        0.37290    0.69310    0.02390    1.000
    B8       B        0.46500    0.76790    0.12470    1.000
    H14      H        0.49410    0.77170    0.11300    1.000
    B9       B        0.40420    0.68390    0.17120    1.000
    H15      H        0.39410    0.63300    0.18980    1.000
    B10      B        0.43770    0.69300    0.09680    1.000
    H16      H        0.44920    0.64760    0.06690    1.000
    B11      B        0.23040    0.95190    0.35040    1.000
    H17      H        0.24340    0.92150    0.40320    1.000
    B12      B        0.22760    0.92020    0.23930    1.000
    H18      H        0.23870    0.86980    0.22170    1.000
    B13      B        0.45030    0.71290    0.20220    1.000
    H19      H        0.47020    0.68030    0.24030    1.000
    B14      B        0.34720    0.95150    0.55120    1.000
    H20      H        0.32320    0.92110    0.52560    1.000
    B15      B        0.18820    0.92580    0.29460    1.000
    H21      H        0.17510    0.87730    0.31190    1.000
    B16      B        0.39610    0.92150    0.55010    1.000
    H22      H        0.40310    0.87130    0.52320    1.000
    B17      B        0.42140    0.95390    0.64180    1.000
    H23      H        0.44490    0.92420    0.67200    1.000
    B18      B        0.18490    0.95470    0.18850    1.000
    H24      H        0.16970    0.92560    0.13730    1.000
    B19      B        0.37520    0.92440    0.64350    1.000
    H25      H        0.36890    0.87560    0.67460    1.000
    Sn1      Sn       0.39452    0.86230    0.20930    1.000
    Ag1      Ag       0.34202    0.92640    0.29706    1.000
    N3       N        0.78881    0.63820    0.07110    1.000
    N4       N        0.79700    0.31510    0.39990    1.000
    C11      C        0.94740    0.43700    0.91900    1.000
    H26      H        0.93840    0.39550    0.93830    1.000
    C12      C        0.97330    0.43750    0.86260    1.000
    H27      H        0.98230    0.39600    0.84310    1.000
    C13      C        0.80560    0.59140    0.09600    1.000
    C14      C        0.81500    0.34540    0.35990    1.000
    B20      B        0.93660    0.34160    0.11220    1.000
    H28      H        0.94750    0.39110    0.09120    1.000
    C15      C        0.73170    0.70040    0.04300    1.000
    H29      H        0.71990    0.66670    0.07210    1.000
    C16      C        0.76920    0.69590    0.03550    1.000
    B21      B        0.88900    0.31100    0.07620    1.000
    H30      H        0.86970    0.34050    0.03250    1.000
    C17      C        0.78780    0.74460    0.99320    1.000
    H31      H        0.81300    0.74040    0.98930    1.000
    C18      C        0.77330    0.28190    0.45150    1.000
    C19      C        0.78590    0.26410    0.53130    1.000
    H32      H        0.81010    0.27370    0.55170    1.000
    B22      B        0.87340    0.25420    0.16020    1.000
    H33      H        0.84420    0.24760    0.17010    1.000
    B23      B        0.91160    0.24900    0.24640    1.000
    H34      H        0.90670    0.23860    0.31170    1.000
    C20      C        0.73750    0.26830    0.41830    1.000
    H35      H        0.72940    0.28060    0.36360    1.000
    B24      B        0.92870    0.27140    0.04210    1.000
    H36      H        0.93440    0.27690    0.97650    1.000
    B25      B        0.95090    0.30390    0.21770    1.000
    H37      H        0.97080    0.32850    0.26450    1.000
    B26      B        0.89140    0.22060    0.07100    1.000
    H38      H        0.87290    0.19310    0.02390    1.000
    B27      B        0.96500    0.26790    0.12470    1.000
    H39      H        0.99410    0.27170    0.11300    1.000
    B28      B        0.90420    0.18390    0.17120    1.000
    H40      H        0.89410    0.13300    0.18980    1.000
    B29      B        0.93770    0.19300    0.09680    1.000
    H41      H        0.94920    0.14760    0.06690    1.000
    B30      B        0.73040    0.45190    0.35040    1.000
    H42      H        0.74340    0.42150    0.40320    1.000
    B31      B        0.72760    0.42020    0.23930    1.000
    H43      H        0.73870    0.36980    0.22170    1.000
    B32      B        0.95030    0.21290    0.20220    1.000
    H44      H        0.97020    0.18030    0.24030    1.000
    B33      B        0.84720    0.45150    0.55120    1.000
    H45      H        0.82320    0.42110    0.52560    1.000
    B34      B        0.68820    0.42580    0.29460    1.000
    H46      H        0.67510    0.37730    0.31190    1.000
    B35      B        0.89610    0.42150    0.55010    1.000
    H47      H        0.90310    0.37130    0.52320    1.000
    B36      B        0.92140    0.45390    0.64180    1.000
    H48      H        0.94490    0.42420    0.67200    1.000
    B37      B        0.68490    0.45470    0.18850    1.000
    H49      H        0.66970    0.42560    0.13730    1.000
    B38      B        0.87520    0.42440    0.64350    1.000
    H50      H        0.86890    0.37560    0.67460    1.000
    Sn2      Sn       0.89452    0.36230    0.20930    1.000
    Ag2      Ag       0.84202    0.42640    0.29706    1.000
    N5       N        0.71119    0.13820    0.92890    1.000
    N6       N        0.70300    0.81510    0.60010    1.000
    C21      C        0.55260    0.93700    0.08100    1.000
    H51      H        0.56160    0.89550    0.06170    1.000
    C22      C        0.52670    0.93750    0.13740    1.000
    H52      H        0.51770    0.89600    0.15690    1.000
    C23      C        0.69440    0.09140    0.90400    1.000
    C24      C        0.68500    0.84540    0.64010    1.000
    B39      B        0.56340    0.84160    0.88780    1.000
    H53      H        0.55250    0.89110    0.90880    1.000
    C25      C        0.76830    0.20040    0.95700    1.000
    H54      H        0.78010    0.16670    0.92790    1.000
    C26      C        0.73080    0.19590    0.96450    1.000
    B40      B        0.61100    0.81100    0.92380    1.000
    H55      H        0.63030    0.84050    0.96750    1.000
    C27      C        0.71220    0.24460    0.00680    1.000
    H56      H        0.68700    0.24040    0.01070    1.000
    C28      C        0.72670    0.78190    0.54850    1.000
    C29      C        0.71410    0.76410    0.46870    1.000
    H57      H        0.68990    0.77370    0.44830    1.000
    B41      B        0.62660    0.75420    0.83980    1.000
    H58      H        0.65580    0.74760    0.82990    1.000
    B42      B        0.58840    0.74900    0.75360    1.000
    H59      H        0.59330    0.73860    0.68830    1.000
    C30      C        0.76250    0.76830    0.58170    1.000
    H60      H        0.77060    0.78060    0.63640    1.000
    B43      B        0.57130    0.77140    0.95790    1.000
    H61      H        0.56560    0.77690    0.02350    1.000
    B44      B        0.54910    0.80390    0.78230    1.000
    H62      H        0.52920    0.82850    0.73550    1.000
    B45      B        0.60860    0.72060    0.92900    1.000
    H63      H        0.62710    0.69310    0.97610    1.000
    B46      B        0.53500    0.76790    0.87530    1.000
    H64      H        0.50590    0.77170    0.88700    1.000
    B47      B        0.59580    0.68390    0.82880    1.000
    H65      H        0.60590    0.63300    0.81020    1.000
    B48      B        0.56230    0.69300    0.90320    1.000
    H66      H        0.55080    0.64760    0.93310    1.000
    B49      B        0.76960    0.95190    0.64960    1.000
    H67      H        0.75660    0.92150    0.59680    1.000
    B50      B        0.77240    0.92020    0.76070    1.000
    H68      H        0.76130    0.86980    0.77830    1.000
    B51      B        0.54970    0.71290    0.79780    1.000
    H69      H        0.52980    0.68030    0.75970    1.000
    B52      B        0.65280    0.95150    0.44880    1.000
    H70      H        0.67680    0.92110    0.47440    1.000
    B53      B        0.81180    0.92580    0.70540    1.000
    H71      H        0.82490    0.87730    0.68810    1.000
    B54      B        0.60390    0.92150    0.44990    1.000
    H72      H        0.59690    0.87130    0.47680    1.000
    B55      B        0.57860    0.95390    0.35820    1.000
    H73      H        0.55510    0.92420    0.32800    1.000
    B56      B        0.81510    0.95470    0.81150    1.000
    H74      H        0.83030    0.92560    0.86270    1.000
    B57      B        0.62480    0.92440    0.35650    1.000
    H75      H        0.63110    0.87560    0.32540    1.000
    Sn3      Sn       0.60548    0.86230    0.79070    1.000
    Ag3      Ag       0.65798    0.92640    0.70294    1.000
    N7       N        0.21119    0.63820    0.92890    1.000
    N8       N        0.20300    0.31510    0.60010    1.000
    C31      C        0.05260    0.43700    0.08100    1.000
    H76      H        0.06160    0.39550    0.06170    1.000
    C32      C        0.02670    0.43750    0.13740    1.000
    H77      H        0.01770    0.39600    0.15690    1.000
    C33      C        0.19440    0.59140    0.90400    1.000
    C34      C        0.18500    0.34540    0.64010    1.000
    B58      B        0.06340    0.34160    0.88780    1.000
    H78      H        0.05250    0.39110    0.90880    1.000
    C35      C        0.26830    0.70040    0.95700    1.000
    H79      H        0.28010    0.66670    0.92790    1.000
    C36      C        0.23080    0.69590    0.96450    1.000
    B59      B        0.11100    0.31100    0.92380    1.000
    H80      H        0.13030    0.34050    0.96750    1.000
    C37      C        0.21220    0.74460    0.00680    1.000
    H81      H        0.18700    0.74040    0.01070    1.000
    C38      C        0.22670    0.28190    0.54850    1.000
    C39      C        0.21410    0.26410    0.46870    1.000
    H82      H        0.18990    0.27370    0.44830    1.000
    B60      B        0.12660    0.25420    0.83980    1.000
    H83      H        0.15580    0.24760    0.82990    1.000
    B61      B        0.08840    0.24900    0.75360    1.000
    H84      H        0.09330    0.23860    0.68830    1.000
    C40      C        0.26250    0.26830    0.58170    1.000
    H85      H        0.27060    0.28060    0.63640    1.000
    B62      B        0.07130    0.27140    0.95790    1.000
    H86      H        0.06560    0.27690    0.02350    1.000
    B63      B        0.04910    0.30390    0.78230    1.000
    H87      H        0.02920    0.32850    0.73550    1.000
    B64      B        0.10860    0.22060    0.92900    1.000
    H88      H        0.12710    0.19310    0.97610    1.000
    B65      B        0.03500    0.26790    0.87530    1.000
    H89      H        0.00590    0.27170    0.88700    1.000
    B66      B        0.09580    0.18390    0.82880    1.000
    H90      H        0.10590    0.13300    0.81020    1.000
    B67      B        0.06230    0.19300    0.90320    1.000
    H91      H        0.05080    0.14760    0.93310    1.000
    B68      B        0.26960    0.45190    0.64960    1.000
    H92      H        0.25660    0.42150    0.59680    1.000
    B69      B        0.27240    0.42020    0.76070    1.000
    H93      H        0.26130    0.36980    0.77830    1.000
    B70      B        0.04970    0.21290    0.79780    1.000
    H94      H        0.02980    0.18030    0.75970    1.000
    B71      B        0.15280    0.45150    0.44880    1.000
    H95      H        0.17680    0.42110    0.47440    1.000
    B72      B        0.31180    0.42580    0.70540    1.000
    H96      H        0.32490    0.37730    0.68810    1.000
    B73      B        0.10390    0.42150    0.44990    1.000
    H97      H        0.09690    0.37130    0.47680    1.000
    B74      B        0.07860    0.45390    0.35820    1.000
    H98      H        0.05510    0.42420    0.32800    1.000
    B75      B        0.31510    0.45470    0.81150    1.000
    H99      H        0.33030    0.42560    0.86270    1.000
    B76      B        0.12480    0.42440    0.35650    1.000
    H100     H        0.13110    0.37560    0.32540    1.000
    Sn4      Sn       0.10548    0.36230    0.79070    1.000
    Ag4      Ag       0.15798    0.42640    0.70294    1.000
    N9       N        0.71119    0.86180    0.92890    1.000
    N10      N        0.70300    0.18490    0.60010    1.000
    C41      C        0.55260    0.06300    0.08100    1.000
    H101     H        0.56160    0.10450    0.06170    1.000
    C42      C        0.52670    0.06250    0.13740    1.000
    H102     H        0.51770    0.10400    0.15690    1.000
    C43      C        0.69440    0.90860    0.90400    1.000
    C44      C        0.68500    0.15460    0.64010    1.000
    B77      B        0.56340    0.15840    0.88780    1.000
    H103     H        0.55250    0.10890    0.90880    1.000
    C45      C        0.76830    0.79960    0.95700    1.000
    H104     H        0.78010    0.83330    0.92790    1.000
    C46      C        0.73080    0.80410    0.96450    1.000
    B78      B        0.61100    0.18900    0.92380    1.000
    H105     H        0.63030    0.15950    0.96750    1.000
    C47      C        0.71220    0.75540    0.00680    1.000
    H106     H        0.68700    0.75960    0.01070    1.000
    C48      C        0.72670    0.21810    0.54850    1.000
    C49      C        0.71410    0.23590    0.46870    1.000
    H107     H        0.68990    0.22630    0.44830    1.000
    B79      B        0.62660    0.24580    0.83980    1.000
    H108     H        0.65580    0.25240    0.82990    1.000
    B80      B        0.58840    0.25100    0.75360    1.000
    H109     H        0.59330    0.26140    0.68830    1.000
    C50      C        0.76250    0.23170    0.58170    1.000
    H110     H        0.77060    0.21940    0.63640    1.000
    B81      B        0.57130    0.22860    0.95790    1.000
    H111     H        0.56560    0.22310    0.02350    1.000
    B82      B        0.54910    0.19610    0.78230    1.000
    H112     H        0.52920    0.17150    0.73550    1.000
    B83      B        0.60860    0.27940    0.92900    1.000
    H113     H        0.62710    0.30690    0.97610    1.000
    B84      B        0.53500    0.23210    0.87530    1.000
    H114     H        0.50590    0.22830    0.88700    1.000
    B85      B        0.59580    0.31610    0.82880    1.000
    H115     H        0.60590    0.36700    0.81020    1.000
    B86      B        0.56230    0.30700    0.90320    1.000
    H116     H        0.55080    0.35240    0.93310    1.000
    B87      B        0.76960    0.04810    0.64960    1.000
    H117     H        0.75660    0.07850    0.59680    1.000
    B88      B        0.77240    0.07980    0.76070    1.000
    H118     H        0.76130    0.13020    0.77830    1.000
    B89      B        0.54970    0.28710    0.79780    1.000
    H119     H        0.52980    0.31970    0.75970    1.000
    B90      B        0.65280    0.04850    0.44880    1.000
    H120     H        0.67680    0.07890    0.47440    1.000
    B91      B        0.81180    0.07420    0.70540    1.000
    H121     H        0.82490    0.12270    0.68810    1.000
    B92      B        0.60390    0.07850    0.44990    1.000
    H122     H        0.59690    0.12870    0.47680    1.000
    B93      B        0.57860    0.04610    0.35820    1.000
    H123     H        0.55510    0.07580    0.32800    1.000
    B94      B        0.81510    0.04530    0.81150    1.000
    H124     H        0.83030    0.07440    0.86270    1.000
    B95      B        0.62480    0.07560    0.35650    1.000
    H125     H        0.63110    0.12440    0.32540    1.000
    Sn5      Sn       0.60548    0.13770    0.79070    1.000
    Ag5      Ag       0.65798    0.07360    0.70294    1.000
    N11      N        0.21119    0.36180    0.92890    1.000
    N12      N        0.20300    0.68490    0.60010    1.000
    C51      C        0.05260    0.56300    0.08100    1.000
    H126     H        0.06160    0.60450    0.06170    1.000
    C52      C        0.02670    0.56250    0.13740    1.000
    H127     H        0.01770    0.60400    0.15690    1.000
    C53      C        0.19440    0.40860    0.90400    1.000
    C54      C        0.18500    0.65460    0.64010    1.000
    B96      B        0.06340    0.65840    0.88780    1.000
    H128     H        0.05250    0.60890    0.90880    1.000
    C55      C        0.26830    0.29960    0.95700    1.000
    H129     H        0.28010    0.33330    0.92790    1.000
    C56      C        0.23080    0.30410    0.96450    1.000
    B97      B        0.11100    0.68900    0.92380    1.000
    H130     H        0.13030    0.65950    0.96750    1.000
    C57      C        0.21220    0.25540    0.00680    1.000
    H131     H        0.18700    0.25960    0.01070    1.000
    C58      C        0.22670    0.71810    0.54850    1.000
    C59      C        0.21410    0.73590    0.46870    1.000
    H132     H        0.18990    0.72630    0.44830    1.000
    B98      B        0.12660    0.74580    0.83980    1.000
    H133     H        0.15580    0.75240    0.82990    1.000
    B99      B        0.08840    0.75100    0.75360    1.000
    H134     H        0.09330    0.76140    0.68830    1.000
    C60      C        0.26250    0.73170    0.58170    1.000
    H135     H        0.27060    0.71940    0.63640    1.000
    B100     B        0.07130    0.72860    0.95790    1.000
    H136     H        0.06560    0.72310    0.02350    1.000
    B101     B        0.04910    0.69610    0.78230    1.000
    H137     H        0.02920    0.67150    0.73550    1.000
    B102     B        0.10860    0.77940    0.92900    1.000
    H138     H        0.12710    0.80690    0.97610    1.000
    B103     B        0.03500    0.73210    0.87530    1.000
    H139     H        0.00590    0.72830    0.88700    1.000
    B104     B        0.09580    0.81610    0.82880    1.000
    H140     H        0.10590    0.86700    0.81020    1.000
    B105     B        0.06230    0.80700    0.90320    1.000
    H141     H        0.05080    0.85240    0.93310    1.000
    B106     B        0.26960    0.54810    0.64960    1.000
    H142     H        0.25660    0.57850    0.59680    1.000
    B107     B        0.27240    0.57980    0.76070    1.000
    H143     H        0.26130    0.63020    0.77830    1.000
    B108     B        0.04970    0.78710    0.79780    1.000
    H144     H        0.02980    0.81970    0.75970    1.000
    B109     B        0.15280    0.54850    0.44880    1.000
    H145     H        0.17680    0.57890    0.47440    1.000
    B110     B        0.31180    0.57420    0.70540    1.000
    H146     H        0.32490    0.62270    0.68810    1.000
    B111     B        0.10390    0.57850    0.44990    1.000
    H147     H        0.09690    0.62870    0.47680    1.000
    B112     B        0.07860    0.54610    0.35820    1.000
    H148     H        0.05510    0.57580    0.32800    1.000
    B113     B        0.31510    0.54530    0.81150    1.000
    H149     H        0.33030    0.57440    0.86270    1.000
    B114     B        0.12480    0.57560    0.35650    1.000
    H150     H        0.13110    0.62440    0.32540    1.000
    Sn6      Sn       0.10548    0.63770    0.79070    1.000
    Ag6      Ag       0.15798    0.57360    0.70294    1.000
    N13      N        0.28881    0.86180    0.07110    1.000
    N14      N        0.29700    0.18490    0.39990    1.000
    C61      C        0.44740    0.06300    0.91900    1.000
    H151     H        0.43840    0.10450    0.93830    1.000
    C62      C        0.47330    0.06250    0.86260    1.000
    H152     H        0.48230    0.10400    0.84310    1.000
    C63      C        0.30560    0.90860    0.09600    1.000
    C64      C        0.31500    0.15460    0.35990    1.000
    B115     B        0.43660    0.15840    0.11220    1.000
    H153     H        0.44750    0.10890    0.09120    1.000
    C65      C        0.23170    0.79960    0.04300    1.000
    H154     H        0.21990    0.83330    0.07210    1.000
    C66      C        0.26920    0.80410    0.03550    1.000
    B116     B        0.38900    0.18900    0.07620    1.000
    H155     H        0.36970    0.15950    0.03250    1.000
    C67      C        0.28780    0.75540    0.99320    1.000
    H156     H        0.31300    0.75960    0.98930    1.000
    C68      C        0.27330    0.21810    0.45150    1.000
    C69      C        0.28590    0.23590    0.53130    1.000
    H157     H        0.31010    0.22630    0.55170    1.000
    B117     B        0.37340    0.24580    0.16020    1.000
    H158     H        0.34420    0.25240    0.17010    1.000
    B118     B        0.41160    0.25100    0.24640    1.000
    H159     H        0.40670    0.26140    0.31170    1.000
    C70      C        0.23750    0.23170    0.41830    1.000
    H160     H        0.22940    0.21940    0.36360    1.000
    B119     B        0.42870    0.22860    0.04210    1.000
    H161     H        0.43440    0.22310    0.97650    1.000
    B120     B        0.45090    0.19610    0.21770    1.000
    H162     H        0.47080    0.17150    0.26450    1.000
    B121     B        0.39140    0.27940    0.07100    1.000
    H163     H        0.37290    0.30690    0.02390    1.000
    B122     B        0.46500    0.23210    0.12470    1.000
    H164     H        0.49410    0.22830    0.11300    1.000
    B123     B        0.40420    0.31610    0.17120    1.000
    H165     H        0.39410    0.36700    0.18980    1.000
    B124     B        0.43770    0.30700    0.09680    1.000
    H166     H        0.44920    0.35240    0.06690    1.000
    B125     B        0.23040    0.04810    0.35040    1.000
    H167     H        0.24340    0.07850    0.40320    1.000
    B126     B        0.22760    0.07980    0.23930    1.000
    H168     H        0.23870    0.13020    0.22170    1.000
    B127     B        0.45030    0.28710    0.20220    1.000
    H169     H        0.47020    0.31970    0.24030    1.000
    B128     B        0.34720    0.04850    0.55120    1.000
    H170     H        0.32320    0.07890    0.52560    1.000
    B129     B        0.18820    0.07420    0.29460    1.000
    H171     H        0.17510    0.12270    0.31190    1.000
    B130     B        0.39610    0.07850    0.55010    1.000
    H172     H        0.40310    0.12870    0.52320    1.000
    B131     B        0.42140    0.04610    0.64180    1.000
    H173     H        0.44490    0.07580    0.67200    1.000
    B132     B        0.18490    0.04530    0.18850    1.000
    H174     H        0.16970    0.07440    0.13730    1.000
    B133     B        0.37520    0.07560    0.64350    1.000
    H175     H        0.36890    0.12440    0.67460    1.000
    Sn7      Sn       0.39452    0.13770    0.20930    1.000
    Ag7      Ag       0.34202    0.07360    0.29706    1.000
    N15      N        0.78881    0.36180    0.07110    1.000
    N16      N        0.79700    0.68490    0.39990    1.000
    C71      C        0.94740    0.56300    0.91900    1.000
    H176     H        0.93840    0.60450    0.93830    1.000
    C72      C        0.97330    0.56250    0.86260    1.000
    H177     H        0.98230    0.60400    0.84310    1.000
    C73      C        0.80560    0.40860    0.09600    1.000
    C74      C        0.81500    0.65460    0.35990    1.000
    B134     B        0.93660    0.65840    0.11220    1.000
    H178     H        0.94750    0.60890    0.09120    1.000
    C75      C        0.73170    0.29960    0.04300    1.000
    H179     H        0.71990    0.33330    0.07210    1.000
    C76      C        0.76920    0.30410    0.03550    1.000
    B135     B        0.88900    0.68900    0.07620    1.000
    H180     H        0.86970    0.65950    0.03250    1.000
    C77      C        0.78780    0.25540    0.99320    1.000
    H181     H        0.81300    0.25960    0.98930    1.000
    C78      C        0.77330    0.71810    0.45150    1.000
    C79      C        0.78590    0.73590    0.53130    1.000
    H182     H        0.81010    0.72630    0.55170    1.000
    B136     B        0.87340    0.74580    0.16020    1.000
    H183     H        0.84420    0.75240    0.17010    1.000
    B137     B        0.91160    0.75100    0.24640    1.000
    H184     H        0.90670    0.76140    0.31170    1.000
    C80      C        0.73750    0.73170    0.41830    1.000
    H185     H        0.72940    0.71940    0.36360    1.000
    B138     B        0.92870    0.72860    0.04210    1.000
    H186     H        0.93440    0.72310    0.97650    1.000
    B139     B        0.95090    0.69610    0.21770    1.000
    H187     H        0.97080    0.67150    0.26450    1.000
    B140     B        0.89140    0.77940    0.07100    1.000
    H188     H        0.87290    0.80690    0.02390    1.000
    B141     B        0.96500    0.73210    0.12470    1.000
    H189     H        0.99410    0.72830    0.11300    1.000
    B142     B        0.90420    0.81610    0.17120    1.000
    H190     H        0.89410    0.86700    0.18980    1.000
    B143     B        0.93770    0.80700    0.09680    1.000
    H191     H        0.94920    0.85240    0.06690    1.000
    B144     B        0.73040    0.54810    0.35040    1.000
    H192     H        0.74340    0.57850    0.40320    1.000
    B145     B        0.72760    0.57980    0.23930    1.000
    H193     H        0.73870    0.63020    0.22170    1.000
    B146     B        0.95030    0.78710    0.20220    1.000
    H194     H        0.97020    0.81970    0.24030    1.000
    B147     B        0.84720    0.54850    0.55120    1.000
    H195     H        0.82320    0.57890    0.52560    1.000
    B148     B        0.68820    0.57420    0.29460    1.000
    H196     H        0.67510    0.62270    0.31190    1.000
    B149     B        0.89610    0.57850    0.55010    1.000
    H197     H        0.90310    0.62870    0.52320    1.000
    B150     B        0.92140    0.54610    0.64180    1.000
    H198     H        0.94490    0.57580    0.67200    1.000
    B151     B        0.68490    0.54530    0.18850    1.000
    H199     H        0.66970    0.57440    0.13730    1.000
    B152     B        0.87520    0.57560    0.64350    1.000
    H200     H        0.86890    0.62440    0.67460    1.000
    Sn8      Sn       0.89452    0.63770    0.20930    1.000
    Ag8      Ag       0.84202    0.57360    0.29706    1.000
    N17      N        0.51360    0.00000    0.78040    1.000
    N18      N        0.40750    0.00000    0.00360    1.000
    C81      C        0.48600    0.00000    0.83520    1.000
    C82      C        0.53790    0.00000    0.74190    1.000
    C83      C        0.43490    0.00000    0.94600    1.000
    C84      C        0.38630    0.00000    0.05080    1.000
    B153     B        0.22520    0.00000    0.16870    1.000
    H201     H        0.23500    0.00000    0.10610    1.000
    B154     B        0.42630    0.00000    0.54940    1.000
    H202     H        0.45270    0.00000    0.52190    1.000
    B155     B        0.18970    0.00000    0.36010    1.000
    H203     H        0.17740    0.00000    0.41990    1.000
    B156     B        0.34660    0.00000    0.64470    1.000
    H204     H        0.32150    0.00000    0.67760    1.000
    B157     B        0.16230    0.00000    0.26400    1.000
    H205     H        0.13210    0.00000    0.26230    1.000
    B158     B        0.39040    0.00000    0.70020    1.000
    H206     H        0.39350    0.00000    0.76900    1.000
    Sn9      Sn       0.27478    0.00000    0.27372    1.000
    Ag9      Ag       0.34002    0.00000    0.12831    1.000
    Ag10     Ag       0.40530    0.00000    0.28158    1.000
    Sn10     Sn       0.37771    0.00000    0.44427    1.000
    N19      N        0.01360    0.50000    0.78040    1.000
    N20      N        0.90750    0.50000    0.00360    1.000
    C85      C        0.98600    0.50000    0.83520    1.000
    C86      C        0.03790    0.50000    0.74190    1.000
    C87      C        0.93490    0.50000    0.94600    1.000
    C88      C        0.88630    0.50000    0.05080    1.000
    B159     B        0.72520    0.50000    0.16870    1.000
    H207     H        0.73500    0.50000    0.10610    1.000
    B160     B        0.92630    0.50000    0.54940    1.000
    H208     H        0.95270    0.50000    0.52190    1.000
    B161     B        0.68970    0.50000    0.36010    1.000
    H209     H        0.67740    0.50000    0.41990    1.000
    B162     B        0.84660    0.50000    0.64470    1.000
    H210     H        0.82150    0.50000    0.67760    1.000
    B163     B        0.66230    0.50000    0.26400    1.000
    H211     H        0.63210    0.50000    0.26230    1.000
    B164     B        0.89040    0.50000    0.70020    1.000
    H212     H        0.89350    0.50000    0.76900    1.000
    Sn11     Sn       0.77478    0.50000    0.27372    1.000
    Ag11     Ag       0.84002    0.50000    0.12831    1.000
    Ag12     Ag       0.90530    0.50000    0.28158    1.000
    Sn12     Sn       0.87771    0.50000    0.44427    1.000
    N21      N        0.48640    0.00000    0.21960    1.000
    N22      N        0.59250    0.00000    0.99640    1.000
    C89      C        0.51400    0.00000    0.16480    1.000
    C90      C        0.46210    0.00000    0.25810    1.000
    C91      C        0.56510    0.00000    0.05400    1.000
    C92      C        0.61370    0.00000    0.94920    1.000
    B165     B        0.77480    0.00000    0.83130    1.000
    H213     H        0.76500    0.00000    0.89390    1.000
    B166     B        0.57370    0.00000    0.45060    1.000
    H214     H        0.54730    0.00000    0.47810    1.000
    B167     B        0.81030    0.00000    0.63990    1.000
    H215     H        0.82260    0.00000    0.58010    1.000
    B168     B        0.65340    0.00000    0.35530    1.000
    H216     H        0.67850    0.00000    0.32240    1.000
    B169     B        0.83770    0.00000    0.73600    1.000
    H217     H        0.86790    0.00000    0.73770    1.000
    B170     B        0.60960    0.00000    0.29980    1.000
    H218     H        0.60650    0.00000    0.23100    1.000
    Sn13     Sn       0.72522    0.00000    0.72628    1.000
    Ag13     Ag       0.65998    0.00000    0.87169    1.000
    Ag14     Ag       0.59470    0.00000    0.71842    1.000
    Sn14     Sn       0.62229    0.00000    0.55573    1.000
    N23      N        0.98640    0.50000    0.21960    1.000
    N24      N        0.09250    0.50000    0.99640    1.000
    C93      C        0.01400    0.50000    0.16480    1.000
    C94      C        0.96210    0.50000    0.25810    1.000
    C95      C        0.06510    0.50000    0.05400    1.000
    C96      C        0.11370    0.50000    0.94920    1.000
    B171     B        0.27480    0.50000    0.83130    1.000
    H219     H        0.26500    0.50000    0.89390    1.000
    B172     B        0.07370    0.50000    0.45060    1.000
    H220     H        0.04730    0.50000    0.47810    1.000
    B173     B        0.31030    0.50000    0.63990    1.000
    H221     H        0.32260    0.50000    0.58010    1.000
    B174     B        0.15340    0.50000    0.35530    1.000
    H222     H        0.17850    0.50000    0.32240    1.000
    B175     B        0.33770    0.50000    0.73600    1.000
    H223     H        0.36790    0.50000    0.73770    1.000
    B176     B        0.10960    0.50000    0.29980    1.000
    H224     H        0.10650    0.50000    0.23100    1.000
    Sn15     Sn       0.22522    0.50000    0.72628    1.000
    Ag15     Ag       0.15998    0.50000    0.87169    1.000
    Ag16     Ag       0.09470    0.50000    0.71842    1.000
    Sn16     Sn       0.12229    0.50000    0.55573    1.000
