# CIF file generated by openbabel 3.1.0, see https://openbabel.org
data_I
_chemical_name_common 'image0'
_cell_length_a 24.9778
_cell_length_b 24.9778
_cell_length_c 24.9778
_cell_angle_alpha 60
_cell_angle_beta 60
_cell_angle_gamma 60
_space_group_name_H-M_alt 'P 1'
_space_group_name_Hall 'P 1'
loop_
    _symmetry_equiv_pos_as_xyz
    x,y,z
loop_
    _atom_site_label
    _atom_site_type_symbol
    _atom_site_fract_x
    _atom_site_fract_y
    _atom_site_fract_z
    _atom_site_occupancy
    Zr1      Zr       0.88373    0.52235    0.52235    1.000
    Zr2      Zr       0.97765    0.47765    0.92843    1.000
    Zr3      Zr       0.02235    0.07157    0.38373    1.000
    Zr4      Zr       0.42843    0.47765    0.61627    1.000
    Zr5      Zr       0.42843    0.61627    0.47765    1.000
    Zr6      Zr       0.42843    0.47765    0.47765    1.000
    Zr7      Zr       0.02235    0.38373    0.07157    1.000
    Zr8      Zr       0.97765    0.47765    0.61627    1.000
    Zr9      Zr       0.88373    0.52235    0.07157    1.000
    Zr10     Zr       0.57157    0.38373    0.52235    1.000
    Zr11     Zr       0.97765    0.61627    0.92843    1.000
    Zr12     Zr       0.88373    0.07157    0.52235    1.000
    Zr13     Zr       0.97765    0.61627    0.47765    1.000
    Zr14     Zr       0.02235    0.52235    0.07157    1.000
    Zr15     Zr       0.02235    0.52235    0.38373    1.000
    Zr16     Zr       0.57157    0.52235    0.38373    1.000
    Zr17     Zr       0.97765    0.92843    0.61627    1.000
    Zr18     Zr       0.11627    0.47765    0.47765    1.000
    Zr19     Zr       0.11627    0.92843    0.47765    1.000
    Zr20     Zr       0.11627    0.47765    0.92843    1.000
    Zr21     Zr       0.57157    0.52235    0.52235    1.000
    Zr22     Zr       0.02235    0.07157    0.52235    1.000
    Zr23     Zr       0.02235    0.38373    0.52235    1.000
    Zr24     Zr       0.97765    0.92843    0.47765    1.000
    H1       H        0.07540    0.74100    0.44260    1.000
    H2       H        0.92460    0.25900    0.25900    1.000
    H3       H        0.75900    0.25900    0.55740    1.000
    H4       H        0.92460    0.55740    0.25900    1.000
    H5       H        0.94260    0.57540    0.74100    1.000
    H6       H        0.05740    0.25900    0.25900    1.000
    H7       H        0.07540    0.44260    0.74100    1.000
    H8       H        0.94260    0.74100    0.74100    1.000
    H9       H        0.92460    0.25900    0.55740    1.000
    H10      H        0.07540    0.74100    0.74100    1.000
    H11      H        0.24100    0.44260    0.74100    1.000
    H12      H        0.24100    0.44260    0.57540    1.000
    H13      H        0.24100    0.74100    0.44260    1.000
    H14      H        0.24100    0.74100    0.57540    1.000
    H15      H        0.05740    0.25900    0.42460    1.000
    H16      H        0.94260    0.74100    0.57540    1.000
    H17      H        0.75900    0.55740    0.42460    1.000
    H18      H        0.24100    0.57540    0.44260    1.000
    H19      H        0.05740    0.42460    0.25900    1.000
    H20      H        0.24100    0.57540    0.74100    1.000
    H21      H        0.75900    0.42460    0.25900    1.000
    H22      H        0.75900    0.25900    0.42460    1.000
    H23      H        0.75900    0.42460    0.55740    1.000
    H24      H        0.75900    0.55740    0.25900    1.000
    C1       C        0.94210    0.65372    0.65372    1.000
    C2       C        0.15372    0.75046    0.44210    1.000
    C3       C        0.21812    0.62126    0.71812    1.000
    C4       C        0.21812    0.71812    0.44250    1.000
    C5       C        0.84628    0.24954    0.55790    1.000
    C6       C        0.68276    0.55280    0.38222    1.000
    C7       C        0.94250    0.71812    0.71812    1.000
    C8       C        0.31724    0.44720    0.61778    1.000
    C9       C        0.05750    0.28188    0.37874    1.000
    C10      C        0.78188    0.37874    0.28188    1.000
    C11      C        0.84628    0.24954    0.34628    1.000
    C12      C        0.11778    0.44720    0.61778    1.000
    C13      C        0.87874    0.28188    0.55750    1.000
    C14      C        0.88222    0.55280    0.18276    1.000
    C15      C        0.84628    0.34628    0.55790    1.000
    C16      C        0.11778    0.81724    0.61778    1.000
    C17      C        0.21812    0.44250    0.62126    1.000
    C18      C        0.25046    0.65372    0.65372    1.000
    C19      C        0.94250    0.71812    0.62126    1.000
    C20      C        0.05280    0.38222    0.38222    1.000
    C21      C        0.15372    0.65372    0.44210    1.000
    C22      C        0.15372    0.44210    0.65372    1.000
    C23      C        0.05750    0.37874    0.28188    1.000
    C24      C        0.31724    0.61778    0.44720    1.000
    C25      C        0.78188    0.37874    0.55750    1.000
    C26      C        0.05280    0.18276    0.38222    1.000
    C27      C        0.84628    0.34628    0.24954    1.000
    C28      C        0.78188    0.55750    0.28188    1.000
    C29      C        0.21812    0.71812    0.62126    1.000
    C30      C        0.15372    0.75046    0.65372    1.000
    C31      C        0.78188    0.55750    0.37874    1.000
    C32      C        0.11778    0.61778    0.81724    1.000
    C33      C        0.05790    0.34628    0.24954    1.000
    C34      C        0.74954    0.34628    0.34628    1.000
    C35      C        0.11778    0.61778    0.44720    1.000
    C36      C        0.78188    0.28188    0.37874    1.000
    C37      C        0.94210    0.65372    0.75046    1.000
    C38      C        0.21812    0.62126    0.44250    1.000
    C39      C        0.11778    0.81724    0.44720    1.000
    C40      C        0.88222    0.38222    0.18276    1.000
    C41      C        0.88222    0.18276    0.55280    1.000
    C42      C        0.88222    0.38222    0.55280    1.000
    C43      C        0.15372    0.65372    0.75046    1.000
    C44      C        0.05280    0.38222    0.18276    1.000
    C45      C        0.84628    0.55790    0.24954    1.000
    C46      C        0.94720    0.61778    0.61778    1.000
    C47      C        0.21812    0.44250    0.71812    1.000
    C48      C        0.84628    0.55790    0.34628    1.000
    C49      C        0.94250    0.62126    0.71812    1.000
    C50      C        0.15372    0.44210    0.75046    1.000
    C51      C        0.94720    0.81724    0.61778    1.000
    C52      C        0.74954    0.55790    0.34628    1.000
    C53      C        0.94210    0.75046    0.65372    1.000
    C54      C        0.12126    0.44250    0.71812    1.000
    C55      C        0.11778    0.44720    0.81724    1.000
    C56      C        0.05790    0.24954    0.34628    1.000
    C57      C        0.25046    0.65372    0.44210    1.000
    C58      C        0.25046    0.44210    0.65372    1.000
    C59      C        0.78188    0.28188    0.55750    1.000
    C60      C        0.05790    0.34628    0.34628    1.000
    C61      C        0.12126    0.71812    0.44250    1.000
    C62      C        0.05750    0.28188    0.28188    1.000
    C63      C        0.68276    0.38222    0.38222    1.000
    C64      C        0.68276    0.38222    0.55280    1.000
    C65      C        0.94720    0.61778    0.81724    1.000
    C66      C        0.31724    0.61778    0.61778    1.000
    C67      C        0.12126    0.71812    0.71812    1.000
    C68      C        0.88222    0.18276    0.38222    1.000
    C69      C        0.87874    0.28188    0.28188    1.000
    C70      C        0.88222    0.55280    0.38222    1.000
    C71      C        0.87874    0.55750    0.28188    1.000
    C72      C        0.74954    0.34628    0.55790    1.000
    S1       S        0.18980    0.31020    0.00000    1.000
    S2       S        0.55070    0.25710    0.59610    1.000
    S3       S        0.81020    0.68980    0.50000    1.000
    S4       S        0.81020    0.50000    0.68980    1.000
    S5       S        0.09610    0.05070    0.25710    1.000
    S6       S        0.90390    0.94930    0.74290    1.000
    S7       S        0.90390    0.74290    0.40390    1.000
    S8       S        0.75710    0.05070    0.59610    1.000
    S9       S        0.24290    0.94930    0.40390    1.000
    S10      S        0.50000    0.68980    0.31020    1.000
    S11      S        0.00000    0.00000    0.31020    1.000
    S12      S        0.90390    0.40390    0.74290    1.000
    S13      S        0.50000    0.50000    0.31020    1.000
    S14      S        0.81020    0.00000    0.50000    1.000
    S15      S        0.90390    0.94930    0.40390    1.000
    S16      S        0.18980    0.50000    0.31020    1.000
    S17      S        0.81020    0.00000    0.68980    1.000
    S18      S        0.81020    0.68980    0.00000    1.000
    S19      S        0.00000    0.31020    0.00000    1.000
    S20      S        0.18980    0.50000    0.00000    1.000
    S21      S        0.50000    0.31020    0.68980    1.000
    S22      S        0.44930    0.74290    0.40390    1.000
    S23      S        0.00000    0.68980    0.31020    1.000
    S24      S        0.18980    0.00000    0.31020    1.000
    S25      S        0.18980    0.00000    0.50000    1.000
    S26      S        0.75710    0.59610    0.05070    1.000
    S27      S        0.50000    0.31020    0.50000    1.000
    S28      S        0.44930    0.40390    0.74290    1.000
    S29      S        0.55070    0.59610    0.59610    1.000
    S30      S        0.90390    0.40390    0.94930    1.000
    S31      S        0.24290    0.40390    0.94930    1.000
    S32      S        0.75710    0.59610    0.59610    1.000
    S33      S        0.18980    0.31020    0.50000    1.000
    S34      S        0.09610    0.25710    0.59610    1.000
    S35      S        0.50000    0.50000    0.68980    1.000
    S36      S        0.00000    0.00000    0.68980    1.000
    S37      S        0.09610    0.59610    0.25710    1.000
    S38      S        0.50000    0.68980    0.50000    1.000
    S39      S        0.09610    0.59610    0.05070    1.000
    S40      S        0.44930    0.40390    0.40390    1.000
    S41      S        0.09610    0.25710    0.05070    1.000
    S42      S        0.81020    0.50000    0.00000    1.000
    S43      S        0.24290    0.40390    0.40390    1.000
    S44      S        0.55070    0.59610    0.25710    1.000
    S45      S        0.09610    0.05070    0.59610    1.000
    S46      S        0.00000    0.31020    0.68980    1.000
    S47      S        0.90390    0.74290    0.94930    1.000
    S48      S        0.00000    0.68980    0.00000    1.000
    O1       O        0.89540    0.32200    0.71020    1.000
    O2       O        0.21020    0.39540    0.07240    1.000
    O3       O        0.78980    0.60460    0.67800    1.000
    O4       O        0.87900    0.94420    0.69680    1.000
    O5       O        0.82200    0.39540    0.71020    1.000
    O6       O        0.06570    0.56570    0.40490    1.000
    O7       O        0.05160    0.97100    0.42580    1.000
    O8       O        0.10460    0.28980    0.92760    1.000
    O9       O        0.42760    0.28980    0.67800    1.000
    O10      O        0.41110    0.80830    0.39030    1.000
    O11      O        0.76320    0.63160    0.63160    1.000
    O12      O        0.11780    0.29960    0.06720    1.000
    O13      O        0.79960    0.61780    0.06720    1.000
    O14      O        0.88220    0.70040    0.48460    1.000
    O15      O        0.78980    0.67800    0.92760    1.000
    O16      O        0.23680    0.36840    0.02640    1.000
    O17      O        0.79960    0.06720    0.51540    1.000
    O18      O        0.10460    0.67800    0.92760    1.000
    O19      O        0.05861    0.84293    0.44975    1.000
    O20      O        0.90490    0.96370    0.56570    1.000
    O21      O        0.01540    0.06720    0.29960    1.000
    O22      O        0.65707    0.55025    0.35129    1.000
    O23      O        0.38810    0.53730    0.53730    1.000
    O24      O        0.53630    0.59510    0.43430    1.000
    O25      O        0.47100    0.55160    0.42580    1.000
    O26      O        0.47100    0.42580    0.55160    1.000
    O27      O        0.53630    0.43430    0.43430    1.000
    O28      O        0.55580    0.30320    0.52000    1.000
    O29      O        0.94139    0.35129    0.15707    1.000
    O30      O        0.53630    0.43430    0.59510    1.000
    O31      O        0.87900    0.94420    0.48000    1.000
    O32      O        0.10970    0.08890    0.19170    1.000
    O33      O        0.42760    0.67800    0.60460    1.000
    O34      O        0.86840    0.02640    0.36840    1.000
    O35      O        0.79960    0.06720    0.61780    1.000
    O36      O        0.94975    0.55861    0.64871    1.000
    O37      O        0.79960    0.51540    0.61780    1.000
    O38      O        0.01540    0.29960    0.61780    1.000
    O39      O        0.86840    0.36840    0.73680    1.000
    O40      O        0.47360    0.63160    0.26320    1.000
    O41      O        0.93430    0.03630    0.43430    1.000
    O42      O        0.90490    0.56570    0.96370    1.000
    O43      O        0.05025    0.35129    0.44139    1.000
    O44      O        0.58890    0.60970    0.60970    1.000
    O45      O        0.10970    0.19170    0.60970    1.000
    O46      O        0.12100    0.30320    0.05580    1.000
    O47      O        0.65707    0.44139    0.35129    1.000
    O48      O        0.89030    0.80830    0.91110    1.000
    O49      O        0.10970    0.60970    0.19170    1.000
    O50      O        0.02820    0.91540    0.52820    1.000
    O51      O        0.98000    0.94420    0.69680    1.000
    O52      O        0.42760    0.28980    0.60460    1.000
    O53      O        0.89030    0.91110    0.39030    1.000
    O54      O        0.20040    0.93280    0.38220    1.000
    O55      O        0.44420    0.48000    0.69680    1.000
    O56      O        0.30830    0.39030    0.91110    1.000
    O57      O        0.57240    0.71020    0.39540    1.000
    O58      O        0.13160    0.97360    0.26320    1.000
    O59      O        0.43280    0.38220    0.70040    1.000
    O60      O        0.88220    0.48460    0.70040    1.000
    O61      O        0.23680    0.02640    0.36840    1.000
    O62      O        0.94840    0.44840    0.02900    1.000
    O63      O        0.05025    0.35129    0.15707    1.000
    O64      O        0.03730    0.53730    0.88810    1.000
    O65      O        0.96270    0.46270    0.11190    1.000
    O66      O        0.93430    0.59510    0.03630    1.000
    O67      O        0.87900    0.48000    0.69680    1.000
    O68      O        0.13160    0.26320    0.63160    1.000
    O69      O        0.76320    0.63160    0.97360    1.000
    O70      O        0.80320    0.52000    0.05580    1.000
    O71      O        0.98460    0.93280    0.38220    1.000
    O72      O        0.94139    0.15707    0.55025    1.000
    O73      O        0.46370    0.56570    0.40490    1.000
    O74      O        0.11780    0.29960    0.51540    1.000
    O75      O        0.10460    0.92760    0.67800    1.000
    O76      O        0.89030    0.39030    0.91110    1.000
    O77      O        0.21020    0.07240    0.39540    1.000
    O78      O        0.93430    0.43430    0.59510    1.000
    O79      O        0.96270    0.46270    0.46270    1.000
    O80      O        0.20040    0.48460    0.93280    1.000
    O81      O        0.94139    0.55025    0.35129    1.000
    O82      O        0.05160    0.42580    0.55160    1.000
    O83      O        0.06570    0.96370    0.40490    1.000
    O84      O        0.92580    0.97100    0.55160    1.000
    O85      O        0.88220    0.48460    0.93280    1.000
    O86      O        0.55580    0.30320    0.62100    1.000
    O87      O        0.93430    0.43430    0.03630    1.000
    O88      O        0.65707    0.35129    0.44139    1.000
    O89      O        0.19680    0.94420    0.48000    1.000
    O90      O        0.12100    0.30320    0.52000    1.000
    O91      O        0.43280    0.70040    0.38220    1.000
    O92      O        0.20040    0.38220    0.93280    1.000
    O93      O        0.34293    0.55861    0.64871    1.000
    O94      O        0.94975    0.64871    0.84293    1.000
    O95      O        0.89540    0.71020    0.32200    1.000
    O96      O        0.34293    0.64871    0.44975    1.000
    O97      O        0.80320    0.62100    0.52000    1.000
    O98      O        0.88220    0.93280    0.70040    1.000
    O99      O        0.17800    0.92760    0.60460    1.000
    O100     O        0.41540    0.52820    0.52820    1.000
    O101     O        0.89030    0.80830    0.39030    1.000
    O102     O        0.57240    0.32200    0.39540    1.000
    O103     O        0.10460    0.92760    0.28980    1.000
    O104     O        0.82200    0.39540    0.07240    1.000
    O105     O        0.57240    0.32200    0.71020    1.000
    O106     O        0.89030    0.91110    0.80830    1.000
    O107     O        0.13160    0.63160    0.97360    1.000
    O108     O        0.07420    0.44840    0.02900    1.000
    O109     O        0.86840    0.02640    0.73680    1.000
    O110     O        0.44420    0.37900    0.69680    1.000
    O111     O        0.98460    0.38220    0.93280    1.000
    O112     O        0.05861    0.44975    0.84293    1.000
    O113     O        0.55580    0.62100    0.30320    1.000
    O114     O        0.94840    0.57420    0.44840    1.000
    O115     O        0.44420    0.37900    0.48000    1.000
    O116     O        0.87900    0.69680    0.94420    1.000
    O117     O        0.05160    0.55160    0.97100    1.000
    O118     O        0.14871    0.84293    0.44975    1.000
    O119     O        0.58890    0.60970    0.19170    1.000
    O120     O        0.52640    0.36840    0.36840    1.000
    O121     O        0.58890    0.19170    0.60970    1.000
    O122     O        0.85129    0.44139    0.15707    1.000
    O123     O        0.23680    0.36840    0.36840    1.000
    O124     O        0.19680    0.48000    0.94420    1.000
    O125     O        0.30830    0.39030    0.39030    1.000
    O126     O        0.56720    0.51540    0.29960    1.000
    O127     O        0.98460    0.93280    0.70040    1.000
    O128     O        0.02000    0.62100    0.30320    1.000
    O129     O        0.58460    0.47180    0.47180    1.000
    O130     O        0.82200    0.71020    0.07240    1.000
    O131     O        0.52640    0.36840    0.73680    1.000
    O132     O        0.13160    0.97360    0.63160    1.000
    O133     O        0.07420    0.02900    0.44840    1.000
    O134     O        0.97180    0.08460    0.47180    1.000
    O135     O        0.94840    0.57420    0.02900    1.000
    O136     O        0.80320    0.05580    0.52000    1.000
    O137     O        0.82200    0.07240    0.71020    1.000
    O138     O        0.94840    0.02900    0.44840    1.000
    O139     O        0.06570    0.96370    0.56570    1.000
    O140     O        0.05025    0.44139    0.15707    1.000
    O141     O        0.89540    0.07240    0.71020    1.000
    O142     O        0.98000    0.94420    0.37900    1.000
    O143     O        0.11780    0.51540    0.06720    1.000
    O144     O        0.44420    0.48000    0.37900    1.000
    O145     O        0.94975    0.84293    0.55861    1.000
    O146     O        0.98460    0.70040    0.38220    1.000
    O147     O        0.01540    0.29960    0.06720    1.000
    O148     O        0.06570    0.40490    0.56570    1.000
    O149     O        0.14871    0.55861    0.84293    1.000
    O150     O        0.78980    0.60460    0.92760    1.000
    O151     O        0.19680    0.37900    0.48000    1.000
    O152     O        0.34293    0.44975    0.55861    1.000
    O153     O        0.10460    0.28980    0.67800    1.000
    O154     O        0.55580    0.52000    0.30320    1.000
    O155     O        0.44420    0.69680    0.37900    1.000
    O156     O        0.80320    0.62100    0.05580    1.000
    O157     O        0.98000    0.69680    0.37900    1.000
    O158     O        0.05025    0.15707    0.35129    1.000
    O159     O        0.21020    0.07240    0.32200    1.000
    O160     O        0.01540    0.06720    0.61780    1.000
    O161     O        0.94139    0.55025    0.15707    1.000
    O162     O        0.05861    0.84293    0.64871    1.000
    O163     O        0.17800    0.60460    0.28980    1.000
    O164     O        0.05025    0.15707    0.44139    1.000
    O165     O        0.10460    0.67800    0.28980    1.000
    O166     O        0.17800    0.28980    0.92760    1.000
    O167     O        0.19680    0.94420    0.37900    1.000
    O168     O        0.65707    0.44139    0.55025    1.000
    O169     O        0.86840    0.73680    0.36840    1.000
    O170     O        0.97180    0.47180    0.08460    1.000
    O171     O        0.79960    0.51540    0.06720    1.000
    O172     O        0.07420    0.44840    0.44840    1.000
    O173     O        0.97180    0.47180    0.47180    1.000
    O174     O        0.89540    0.71020    0.07240    1.000
    O175     O        0.93430    0.59510    0.43430    1.000
    O176     O        0.12100    0.05580    0.30320    1.000
    O177     O        0.94975    0.64871    0.55861    1.000
    O178     O        0.03730    0.53730    0.53730    1.000
    O179     O        0.56720    0.61780    0.51540    1.000
    O180     O        0.42760    0.60460    0.28980    1.000
    O181     O        0.11780    0.51540    0.29960    1.000
    O182     O        0.78980    0.67800    0.60460    1.000
    O183     O        0.02000    0.05580    0.62100    1.000
    O184     O        0.41110    0.39030    0.39030    1.000
    O185     O        0.05861    0.64871    0.44975    1.000
    O186     O        0.47360    0.26320    0.63160    1.000
    O187     O        0.02000    0.62100    0.05580    1.000
    O188     O        0.98460    0.38220    0.70040    1.000
    O189     O        0.82200    0.71020    0.39540    1.000
    O190     O        0.69170    0.60970    0.08890    1.000
    O191     O        0.94975    0.55861    0.84293    1.000
    O192     O        0.94139    0.15707    0.35129    1.000
    O193     O        0.85129    0.15707    0.44139    1.000
    O194     O        0.06570    0.56570    0.96370    1.000
    O195     O        0.94975    0.84293    0.64871    1.000
    O196     O        0.05025    0.44139    0.35129    1.000
    O197     O        0.85129    0.15707    0.55025    1.000
    O198     O        0.11780    0.06720    0.29960    1.000
    O199     O        0.80320    0.52000    0.62100    1.000
    O200     O        0.02000    0.30320    0.05580    1.000
    O201     O        0.42760    0.67800    0.28980    1.000
    O202     O        0.11780    0.06720    0.51540    1.000
    O203     O        0.02820    0.52820    0.52820    1.000
    O204     O        0.20040    0.48460    0.38220    1.000
    O205     O        0.17800    0.60460    0.92760    1.000
    O206     O        0.06570    0.40490    0.96370    1.000
    O207     O        0.87900    0.48000    0.94420    1.000
    O208     O        0.94840    0.02900    0.57420    1.000
    O209     O        0.20040    0.93280    0.48460    1.000
    O210     O        0.57240    0.39540    0.71020    1.000
    O211     O        0.43280    0.48460    0.38220    1.000
    O212     O        0.13160    0.63160    0.26320    1.000
    O213     O        0.21020    0.32200    0.39540    1.000
    O214     O        0.69170    0.08890    0.60970    1.000
    O215     O        0.52640    0.73680    0.36840    1.000
    O216     O        0.30830    0.91110    0.39030    1.000
    O217     O        0.09510    0.03630    0.43430    1.000
    O218     O        0.14871    0.55861    0.44975    1.000
    O219     O        0.19680    0.48000    0.37900    1.000
    O220     O        0.01540    0.61780    0.06720    1.000
    O221     O        0.80320    0.05580    0.62100    1.000
    O222     O        0.98000    0.69680    0.94420    1.000
    O223     O        0.12100    0.52000    0.30320    1.000
    O224     O        0.88220    0.70040    0.93280    1.000
    O225     O        0.17800    0.92760    0.28980    1.000
    O226     O        0.57240    0.39540    0.32200    1.000
    O227     O        0.85129    0.55025    0.15707    1.000
    O228     O        0.85129    0.44139    0.55025    1.000
    O229     O        0.98000    0.37900    0.94420    1.000
    O230     O        0.79960    0.61780    0.51540    1.000
    O231     O        0.56720    0.61780    0.29960    1.000
    O232     O        0.43280    0.70040    0.48460    1.000
    O233     O        0.09510    0.43430    0.43430    1.000
    O234     O        0.34293    0.64871    0.55861    1.000
    O235     O        0.34293    0.55861    0.44975    1.000
    O236     O        0.76320    0.97360    0.63160    1.000
    O237     O        0.65707    0.35129    0.55025    1.000
    O238     O        0.34293    0.44975    0.64871    1.000
    O239     O        0.69170    0.60970    0.60970    1.000
    O240     O        0.10970    0.08890    0.60970    1.000
    O241     O        0.21020    0.32200    0.07240    1.000
    O242     O        0.87900    0.69680    0.48000    1.000
    O243     O        0.56720    0.29960    0.51540    1.000
    O244     O        0.02000    0.30320    0.62100    1.000
    O245     O        0.85129    0.55025    0.44139    1.000
    O246     O        0.19680    0.37900    0.94420    1.000
    O247     O        0.41110    0.39030    0.80830    1.000
    O248     O        0.98000    0.37900    0.69680    1.000
    O249     O        0.89540    0.07240    0.32200    1.000
    O250     O        0.44420    0.69680    0.48000    1.000
    O251     O        0.10970    0.60970    0.08890    1.000
    O252     O        0.56720    0.51540    0.61780    1.000
    O253     O        0.46370    0.40490    0.56570    1.000
    O254     O        0.96270    0.11190    0.46270    1.000
    O255     O        0.89030    0.39030    0.80830    1.000
    O256     O        0.43280    0.38220    0.48460    1.000
    O257     O        0.93430    0.03630    0.59510    1.000
    O258     O        0.02820    0.52820    0.91540    1.000
    O259     O        0.02000    0.05580    0.30320    1.000
    O260     O        0.86840    0.36840    0.02640    1.000
    O261     O        0.57240    0.71020    0.32200    1.000
    O262     O        0.01540    0.61780    0.29960    1.000
    O263     O        0.98460    0.70040    0.93280    1.000
    O264     O        0.05861    0.44975    0.64871    1.000
    O265     O        0.21020    0.39540    0.32200    1.000
    O266     O        0.14871    0.84293    0.55861    1.000
    O267     O        0.52900    0.44840    0.44840    1.000
    O268     O        0.47100    0.55160    0.55160    1.000
    O269     O        0.78980    0.92760    0.67800    1.000
    O270     O        0.05861    0.64871    0.84293    1.000
    O271     O        0.12100    0.05580    0.52000    1.000
    O272     O        0.92580    0.55160    0.97100    1.000
    O273     O        0.17800    0.28980    0.60460    1.000
    O274     O        0.94139    0.35129    0.55025    1.000
    O275     O        0.05160    0.55160    0.42580    1.000
    O276     O        0.14871    0.44975    0.84293    1.000
    O277     O        0.56720    0.29960    0.61780    1.000
    O278     O        0.89540    0.32200    0.07240    1.000
    O279     O        0.55580    0.52000    0.62100    1.000
    O280     O        0.92580    0.55160    0.55160    1.000
    O281     O        0.61190    0.46270    0.46270    1.000
    O282     O        0.94840    0.44840    0.57420    1.000
    O283     O        0.55580    0.62100    0.52000    1.000
    O284     O        0.52900    0.57420    0.44840    1.000
    O285     O        0.82200    0.07240    0.39540    1.000
    O286     O        0.46370    0.56570    0.56570    1.000
    O287     O        0.13160    0.26320    0.97360    1.000
    O288     O        0.47360    0.63160    0.63160    1.000
    O289     O        0.88220    0.93280    0.48460    1.000
    O290     O        0.05160    0.42580    0.97100    1.000
    O291     O        0.78980    0.92760    0.60460    1.000
    O292     O        0.14871    0.44975    0.55861    1.000
    O293     O        0.42760    0.60460    0.67800    1.000
    O294     O        0.52900    0.44840    0.57420    1.000
    O295     O        0.10970    0.19170    0.08890    1.000
    O296     O        0.20040    0.38220    0.48460    1.000
    O297     O        0.86840    0.73680    0.02640    1.000
    O298     O        0.09510    0.43430    0.03630    1.000
    O299     O        0.03730    0.88810    0.53730    1.000
    O300     O        0.12100    0.52000    0.05580    1.000
    O301     O        0.05160    0.97100    0.55160    1.000
    O302     O        0.90490    0.56570    0.56570    1.000
    O303     O        0.43280    0.48460    0.70040    1.000
    O304     O        0.65707    0.55025    0.44139    1.000
