# CIF file generated by openbabel 3.1.0, see https://openbabel.org
data_I
_chemical_name_common 'image0'
_cell_length_a 10.6762
_cell_length_b 28.242
_cell_length_c 34.079
_cell_angle_alpha 90
_cell_angle_beta 90
_cell_angle_gamma 90
_space_group_name_H-M_alt 'P 1'
_space_group_name_Hall 'P 1'
loop_
    _symmetry_equiv_pos_as_xyz
    x,y,z
loop_
    _atom_site_label
    _atom_site_type_symbol
    _atom_site_fract_x
    _atom_site_fract_y
    _atom_site_fract_z
    _atom_site_occupancy
    O1       O        0.65640    0.35741    0.05666    1.000
    C1       C        0.52860    0.35850    0.99892    1.000
    O2       O        0.85610    0.24089    0.20445    1.000
    C2       C        0.58660    0.32768    0.03081    1.000
    H1       H        0.52010    0.31100    0.04550    1.000
    H2       H        0.64250    0.30370    0.01880    1.000
    O3       O        0.96610    0.30789    0.20935    1.000
    C3       C        0.62490    0.38927    0.97789    1.000
    H3       H        0.58350    0.40820    0.95720    1.000
    H4       H        0.66450    0.41130    0.99680    1.000
    O4       O        0.71790    0.35930    0.96082    1.000
    C4       C        0.46730    0.32415    0.96987    1.000
    H5       H        0.53200    0.30380    0.95760    1.000
    H6       H        0.40680    0.30350    0.98370    1.000
    O5       O        0.96420    0.36847    0.79382    1.000
    C5       C        0.43610    0.39332    0.01704    1.000
    H7       H        0.48020    0.41430    0.03580    1.000
    H8       H        0.39870    0.41330    0.99630    1.000
    O6       O        0.89500    0.44203    0.79740    1.000
    C6       C        0.70780    0.33658    0.08959    1.000
    O7       O        0.40410    0.35121    0.94038    1.000
    C7       C        0.69040    0.28978    0.10037    1.000
    H9       H        0.64030    0.26940    0.08470    1.000
    O8       O        0.10920    0.28770    0.78952    1.000
    C8       C        0.74660    0.27319    0.13414    1.000
    H10      H        0.73260    0.24130    0.14200    1.000
    O9       O        0.22320    0.22283    0.79629    1.000
    C9       C        0.82270    0.30178    0.15683    1.000
    O10      O        0.34000    0.36759    0.03691    1.000
    C10      C        0.84050    0.34845    0.14564    1.000
    H11      H        0.89350    0.36830    0.16090    1.000
    O11      O        0.20080    0.45826    0.20172    1.000
    C11      C        0.78250    0.36663    0.11272    1.000
    H12      H        0.79290    0.39900    0.10580    1.000
    O12      O        0.11670    0.38687    0.20677    1.000
    C12      C        0.88600    0.28153    0.19295    1.000
    C13      C        0.76930    0.37329    0.92597    1.000
    C14      C        0.82770    0.33752    0.90498    1.000
    H13      H        0.83300    0.30640    0.91550    1.000
    C15      C        0.87860    0.34773    0.86826    1.000
    H14      H        0.91980    0.32350    0.85390    1.000
    O13      O        0.61110    0.48920    0.72950    1.000
    C16      C        0.86980    0.39243    0.85261    1.000
    O14      O        0.66270    0.44530    0.77420    1.000
    C17      C        0.81770    0.42827    0.87478    1.000
    H15      H        0.81610    0.45960    0.86470    1.000
    C18      C        0.76740    0.41931    0.91176    1.000
    H16      H        0.73240    0.44420    0.92690    1.000
    C19      C        0.91140    0.40173    0.81125    1.000
    C20      C        0.35670    0.32735    0.90879    1.000
    C21      C        0.37660    0.27977    0.90094    1.000
    H17      H        0.42520    0.26100    0.91840    1.000
    C22      C        0.32490    0.25978    0.86737    1.000
    H18      H        0.34140    0.22750    0.86160    1.000
    C23      C        0.25050    0.28554    0.84227    1.000
    C24      C        0.22810    0.33312    0.85121    1.000
    H19      H        0.17510    0.35130    0.83460    1.000
    C25      C        0.28160    0.35401    0.88353    1.000
    H20      H        0.26750    0.38660    0.88870    1.000
    C26      C        0.19030    0.26338    0.80697    1.000
    C27      C        0.30160    0.38338    0.07275    1.000
    C28      C        0.22680    0.35187    0.09324    1.000
    H21      H        0.20460    0.32240    0.08170    1.000
    C29      C        0.18430    0.36295    0.13034    1.000
    H22      H        0.13250    0.34130    0.14410    1.000
    C30      C        0.21730    0.40588    0.14763    1.000
    C31      C        0.28950    0.43768    0.12647    1.000
    H23      H        0.31050    0.46740    0.13780    1.000
    C32      C        0.33190    0.42690    0.08880    1.000
    H24      H        0.38070    0.44900    0.07440    1.000
    C33      C        0.17460    0.41779    0.18841    1.000
    O15      O        0.34360    0.64259    0.55666    1.000
    C34      C        0.47140    0.64150    0.49892    1.000
    O16      O        0.14390    0.75911    0.70445    1.000
    C35      C        0.41340    0.67232    0.53081    1.000
    H25      H        0.47990    0.68900    0.54550    1.000
    H26      H        0.35750    0.69630    0.51880    1.000
    O17      O        0.03390    0.69211    0.70935    1.000
    C36      C        0.37510    0.61073    0.47789    1.000
    H27      H        0.41650    0.59180    0.45720    1.000
    H28      H        0.33550    0.58870    0.49680    1.000
    O18      O        0.28210    0.64070    0.46082    1.000
    C37      C        0.53270    0.67585    0.46987    1.000
    H29      H        0.46800    0.69620    0.45760    1.000
    H30      H        0.59320    0.69650    0.48370    1.000
    O19      O        0.03580    0.63153    0.29382    1.000
    C38      C        0.56390    0.60668    0.51704    1.000
    H31      H        0.51980    0.58570    0.53580    1.000
    H32      H        0.60130    0.58670    0.49630    1.000
    O20      O        0.10500    0.55797    0.29740    1.000
    C39      C        0.29220    0.66342    0.58959    1.000
    O21      O        0.59590    0.64879    0.44038    1.000
    C40      C        0.30960    0.71022    0.60037    1.000
    H33      H        0.35970    0.73060    0.58470    1.000
    O22      O        0.89080    0.71230    0.28952    1.000
    C41      C        0.25340    0.72681    0.63414    1.000
    H34      H        0.26740    0.75870    0.64200    1.000
    O23      O        0.77680    0.77717    0.29629    1.000
    C42      C        0.17730    0.69822    0.65683    1.000
    O24      O        0.66000    0.63241    0.53691    1.000
    C43      C        0.15950    0.65155    0.64564    1.000
    H35      H        0.10650    0.63170    0.66090    1.000
    O25      O        0.79920    0.54174    0.70172    1.000
    C44      C        0.21750    0.63337    0.61272    1.000
    H36      H        0.20710    0.60100    0.60580    1.000
    O26      O        0.88330    0.61313    0.70677    1.000
    C45      C        0.11400    0.71847    0.69295    1.000
    C46      C        0.23070    0.62671    0.42597    1.000
    C47      C        0.17230    0.66248    0.40498    1.000
    H37      H        0.16700    0.69360    0.41550    1.000
    C48      C        0.12140    0.65227    0.36826    1.000
    H38      H        0.08020    0.67650    0.35390    1.000
    O27      O        0.38890    0.51080    0.22950    1.000
    C49      C        0.13020    0.60757    0.35261    1.000
    O28      O        0.33730    0.55470    0.27420    1.000
    C50      C        0.18230    0.57173    0.37478    1.000
    H39      H        0.18390    0.54040    0.36470    1.000
    C51      C        0.23260    0.58069    0.41176    1.000
    H40      H        0.26760    0.55580    0.42690    1.000
    C52      C        0.08860    0.59827    0.31125    1.000
    C53      C        0.64330    0.67265    0.40879    1.000
    C54      C        0.62340    0.72023    0.40094    1.000
    H41      H        0.57480    0.73900    0.41840    1.000
    C55      C        0.67510    0.74022    0.36737    1.000
    H42      H        0.65860    0.77250    0.36160    1.000
    C56      C        0.74950    0.71446    0.34227    1.000
    C57      C        0.77190    0.66688    0.35121    1.000
    H43      H        0.82490    0.64870    0.33460    1.000
    C58      C        0.71840    0.64599    0.38353    1.000
    H44      H        0.73250    0.61340    0.38870    1.000
    C59      C        0.80970    0.73662    0.30697    1.000
    C60      C        0.69840    0.61662    0.57275    1.000
    C61      C        0.77320    0.64813    0.59324    1.000
    H45      H        0.79540    0.67760    0.58170    1.000
    C62      C        0.81570    0.63705    0.63034    1.000
    H46      H        0.86750    0.65870    0.64410    1.000
    C63      C        0.78270    0.59412    0.64763    1.000
    C64      C        0.71050    0.56232    0.62647    1.000
    H47      H        0.68950    0.53260    0.63780    1.000
    C65      C        0.66810    0.57310    0.58880    1.000
    H48      H        0.61930    0.55100    0.57440    1.000
    C66      C        0.82540    0.58221    0.68841    1.000
    O29      O        0.34360    0.85741    0.44334    1.000
    C67      C        0.47140    0.85850    0.50108    1.000
    O30      O        0.14390    0.74089    0.29555    1.000
    C68      C        0.41340    0.82768    0.46919    1.000
    H49      H        0.47990    0.81100    0.45450    1.000
    H50      H        0.35750    0.80370    0.48120    1.000
    O31      O        0.03390    0.80789    0.29065    1.000
    C69      C        0.37510    0.88927    0.52211    1.000
    H51      H        0.41650    0.90820    0.54280    1.000
    H52      H        0.33550    0.91130    0.50320    1.000
    O32      O        0.28210    0.85930    0.53918    1.000
    C70      C        0.53270    0.82415    0.53013    1.000
    H53      H        0.46800    0.80380    0.54240    1.000
    H54      H        0.59320    0.80350    0.51630    1.000
    O33      O        0.03580    0.86847    0.70618    1.000
    C71      C        0.56390    0.89332    0.48296    1.000
    H55      H        0.51980    0.91430    0.46420    1.000
    H56      H        0.60130    0.91330    0.50370    1.000
    O34      O        0.10500    0.94203    0.70260    1.000
    C72      C        0.29220    0.83658    0.41041    1.000
    O35      O        0.59590    0.85121    0.55962    1.000
    C73      C        0.30960    0.78978    0.39963    1.000
    H57      H        0.35970    0.76940    0.41530    1.000
    O36      O        0.89080    0.78770    0.71048    1.000
    C74      C        0.25340    0.77319    0.36586    1.000
    H58      H        0.26740    0.74130    0.35800    1.000
    O37      O        0.77680    0.72283    0.70371    1.000
    C75      C        0.17730    0.80178    0.34317    1.000
    O38      O        0.66000    0.86759    0.46309    1.000
    C76      C        0.15950    0.84845    0.35436    1.000
    H59      H        0.10650    0.86830    0.33910    1.000
    O39      O        0.79920    0.95826    0.29828    1.000
    C77      C        0.21750    0.86663    0.38728    1.000
    H60      H        0.20710    0.89900    0.39420    1.000
    O40      O        0.88330    0.88687    0.29323    1.000
    C78      C        0.11400    0.78153    0.30705    1.000
    C79      C        0.23070    0.87329    0.57403    1.000
    C80      C        0.17230    0.83752    0.59502    1.000
    H61      H        0.16700    0.80640    0.58450    1.000
    C81      C        0.12140    0.84773    0.63174    1.000
    H62      H        0.08020    0.82350    0.64610    1.000
    O41      O        0.38890    0.98920    0.77050    1.000
    C82      C        0.13020    0.89243    0.64739    1.000
    O42      O        0.33730    0.94530    0.72580    1.000
    C83      C        0.18230    0.92827    0.62522    1.000
    H63      H        0.18390    0.95960    0.63530    1.000
    C84      C        0.23260    0.91931    0.58824    1.000
    H64      H        0.26760    0.94420    0.57310    1.000
    C85      C        0.08860    0.90173    0.68875    1.000
    C86      C        0.64330    0.82735    0.59121    1.000
    C87      C        0.62340    0.77977    0.59906    1.000
    H65      H        0.57480    0.76100    0.58160    1.000
    C88      C        0.67510    0.75978    0.63263    1.000
    H66      H        0.65860    0.72750    0.63840    1.000
    C89      C        0.74950    0.78554    0.65773    1.000
    C90      C        0.77190    0.83312    0.64879    1.000
    H67      H        0.82490    0.85130    0.66540    1.000
    C91      C        0.71840    0.85401    0.61647    1.000
    H68      H        0.73250    0.88660    0.61130    1.000
    C92      C        0.80970    0.76338    0.69303    1.000
    C93      C        0.69840    0.88338    0.42725    1.000
    C94      C        0.77320    0.85187    0.40676    1.000
    H69      H        0.79540    0.82240    0.41830    1.000
    C95      C        0.81570    0.86295    0.36966    1.000
    H70      H        0.86750    0.84130    0.35590    1.000
    C96      C        0.78270    0.90588    0.35237    1.000
    C97      C        0.71050    0.93768    0.37353    1.000
    H71      H        0.68950    0.96740    0.36220    1.000
    C98      C        0.66810    0.92690    0.41120    1.000
    H72      H        0.61930    0.94900    0.42560    1.000
    C99      C        0.82540    0.91779    0.31159    1.000
    O43      O        0.65640    0.14259    0.94334    1.000
    C100     C        0.52860    0.14150    0.00108    1.000
    O44      O        0.85610    0.25911    0.79555    1.000
    C101     C        0.58660    0.17232    0.96919    1.000
    H73      H        0.52010    0.18900    0.95450    1.000
    H74      H        0.64250    0.19630    0.98120    1.000
    O45      O        0.96610    0.19211    0.79065    1.000
    C102     C        0.62490    0.11073    0.02211    1.000
    H75      H        0.58350    0.09180    0.04280    1.000
    H76      H        0.66450    0.08870    0.00320    1.000
    O46      O        0.71790    0.14070    0.03918    1.000
    C103     C        0.46730    0.17585    0.03013    1.000
    H77      H        0.53200    0.19620    0.04240    1.000
    H78      H        0.40680    0.19650    0.01630    1.000
    O47      O        0.96420    0.13153    0.20618    1.000
    C104     C        0.43610    0.10668    0.98296    1.000
    H79      H        0.48020    0.08570    0.96420    1.000
    H80      H        0.39870    0.08670    0.00370    1.000
    O48      O        0.89500    0.05797    0.20260    1.000
    C105     C        0.70780    0.16342    0.91041    1.000
    O49      O        0.40410    0.14879    0.05962    1.000
    C106     C        0.69040    0.21022    0.89963    1.000
    H81      H        0.64030    0.23060    0.91530    1.000
    O50      O        0.10920    0.21230    0.21048    1.000
    C107     C        0.74660    0.22681    0.86586    1.000
    H82      H        0.73260    0.25870    0.85800    1.000
    O51      O        0.22320    0.27717    0.20371    1.000
    C108     C        0.82270    0.19822    0.84317    1.000
    O52      O        0.34000    0.13241    0.96309    1.000
    C109     C        0.84050    0.15155    0.85436    1.000
    H83      H        0.89350    0.13170    0.83910    1.000
    O53      O        0.20080    0.04174    0.79828    1.000
    C110     C        0.78250    0.13337    0.88728    1.000
    H84      H        0.79290    0.10100    0.89420    1.000
    O54      O        0.11670    0.11313    0.79323    1.000
    C111     C        0.88600    0.21847    0.80705    1.000
    C112     C        0.76930    0.12671    0.07403    1.000
    C113     C        0.82770    0.16248    0.09502    1.000
    H85      H        0.83300    0.19360    0.08450    1.000
    C114     C        0.87860    0.15227    0.13174    1.000
    H86      H        0.91980    0.17650    0.14610    1.000
    O55      O        0.61110    0.01080    0.27050    1.000
    C115     C        0.86980    0.10757    0.14739    1.000
    O56      O        0.66270    0.05470    0.22580    1.000
    C116     C        0.81770    0.07173    0.12522    1.000
    H87      H        0.81610    0.04040    0.13530    1.000
    C117     C        0.76740    0.08069    0.08824    1.000
    H88      H        0.73240    0.05580    0.07310    1.000
    C118     C        0.91140    0.09827    0.18875    1.000
    C119     C        0.35670    0.17265    0.09121    1.000
    C120     C        0.37660    0.22023    0.09906    1.000
    H89      H        0.42520    0.23900    0.08160    1.000
    C121     C        0.32490    0.24022    0.13263    1.000
    H90      H        0.34140    0.27250    0.13840    1.000
    C122     C        0.25050    0.21446    0.15773    1.000
    C123     C        0.22810    0.16688    0.14879    1.000
    H91      H        0.17510    0.14870    0.16540    1.000
    C124     C        0.28160    0.14599    0.11647    1.000
    H92      H        0.26750    0.11340    0.11130    1.000
    C125     C        0.19030    0.23662    0.19303    1.000
    C126     C        0.30160    0.11662    0.92725    1.000
    C127     C        0.22680    0.14813    0.90676    1.000
    H93      H        0.20460    0.17760    0.91830    1.000
    C128     C        0.18430    0.13705    0.86966    1.000
    H94      H        0.13250    0.15870    0.85590    1.000
    C129     C        0.21730    0.09412    0.85237    1.000
    C130     C        0.28950    0.06232    0.87353    1.000
    H95      H        0.31050    0.03260    0.86220    1.000
    C131     C        0.33190    0.07310    0.91120    1.000
    H96      H        0.38070    0.05100    0.92560    1.000
    C132     C        0.17460    0.08221    0.81159    1.000
    O57      O        0.34360    0.64259    0.94334    1.000
    C133     C        0.47140    0.64150    0.00108    1.000
    O58      O        0.14390    0.75911    0.79555    1.000
    C134     C        0.41340    0.67232    0.96919    1.000
    H97      H        0.47990    0.68900    0.95450    1.000
    H98      H        0.35750    0.69630    0.98120    1.000
    O59      O        0.03390    0.69211    0.79065    1.000
    C135     C        0.37510    0.61073    0.02211    1.000
    H99      H        0.41650    0.59180    0.04280    1.000
    H100     H        0.33550    0.58870    0.00320    1.000
    O60      O        0.28210    0.64070    0.03918    1.000
    C136     C        0.53270    0.67585    0.03013    1.000
    H101     H        0.46800    0.69620    0.04240    1.000
    H102     H        0.59320    0.69650    0.01630    1.000
    O61      O        0.03580    0.63153    0.20618    1.000
    C137     C        0.56390    0.60668    0.98296    1.000
    H103     H        0.51980    0.58570    0.96420    1.000
    H104     H        0.60130    0.58670    0.00370    1.000
    O62      O        0.10500    0.55797    0.20260    1.000
    C138     C        0.29220    0.66342    0.91041    1.000
    O63      O        0.59590    0.64879    0.05962    1.000
    C139     C        0.30960    0.71022    0.89963    1.000
    H105     H        0.35970    0.73060    0.91530    1.000
    O64      O        0.89080    0.71230    0.21048    1.000
    C140     C        0.25340    0.72681    0.86586    1.000
    H106     H        0.26740    0.75870    0.85800    1.000
    O65      O        0.77680    0.77717    0.20371    1.000
    C141     C        0.17730    0.69822    0.84317    1.000
    O66      O        0.66000    0.63241    0.96309    1.000
    C142     C        0.15950    0.65155    0.85436    1.000
    H107     H        0.10650    0.63170    0.83910    1.000
    O67      O        0.79920    0.54174    0.79828    1.000
    C143     C        0.21750    0.63337    0.88728    1.000
    H108     H        0.20710    0.60100    0.89420    1.000
    O68      O        0.88330    0.61313    0.79323    1.000
    C144     C        0.11400    0.71847    0.80705    1.000
    C145     C        0.23070    0.62671    0.07403    1.000
    C146     C        0.17230    0.66248    0.09502    1.000
    H109     H        0.16700    0.69360    0.08450    1.000
    C147     C        0.12140    0.65227    0.13174    1.000
    H110     H        0.08020    0.67650    0.14610    1.000
    O69      O        0.38890    0.51080    0.27050    1.000
    C148     C        0.13020    0.60757    0.14739    1.000
    O70      O        0.33730    0.55470    0.22580    1.000
    C149     C        0.18230    0.57173    0.12522    1.000
    H111     H        0.18390    0.54040    0.13530    1.000
    C150     C        0.23260    0.58069    0.08824    1.000
    H112     H        0.26760    0.55580    0.07310    1.000
    C151     C        0.08860    0.59827    0.18875    1.000
    C152     C        0.64330    0.67265    0.09121    1.000
    C153     C        0.62340    0.72023    0.09906    1.000
    H113     H        0.57480    0.73900    0.08160    1.000
    C154     C        0.67510    0.74022    0.13263    1.000
    H114     H        0.65860    0.77250    0.13840    1.000
    C155     C        0.74950    0.71446    0.15773    1.000
    C156     C        0.77190    0.66688    0.14879    1.000
    H115     H        0.82490    0.64870    0.16540    1.000
    C157     C        0.71840    0.64599    0.11647    1.000
    H116     H        0.73250    0.61340    0.11130    1.000
    C158     C        0.80970    0.73662    0.19303    1.000
    C159     C        0.69840    0.61662    0.92725    1.000
    C160     C        0.77320    0.64813    0.90676    1.000
    H117     H        0.79540    0.67760    0.91830    1.000
    C161     C        0.81570    0.63705    0.86966    1.000
    H118     H        0.86750    0.65870    0.85590    1.000
    C162     C        0.78270    0.59412    0.85237    1.000
    C163     C        0.71050    0.56232    0.87353    1.000
    H119     H        0.68950    0.53260    0.86220    1.000
    C164     C        0.66810    0.57310    0.91120    1.000
    H120     H        0.61930    0.55100    0.92560    1.000
    C165     C        0.82540    0.58221    0.81159    1.000
    O71      O        0.65640    0.35741    0.44334    1.000
    C166     C        0.52860    0.35850    0.50108    1.000
    O72      O        0.85610    0.24089    0.29555    1.000
    C167     C        0.58660    0.32768    0.46919    1.000
    H121     H        0.52010    0.31100    0.45450    1.000
    H122     H        0.64250    0.30370    0.48120    1.000
    O73      O        0.96610    0.30789    0.29065    1.000
    C168     C        0.62490    0.38927    0.52211    1.000
    H123     H        0.58350    0.40820    0.54280    1.000
    H124     H        0.66450    0.41130    0.50320    1.000
    O74      O        0.71790    0.35930    0.53918    1.000
    C169     C        0.46730    0.32415    0.53013    1.000
    H125     H        0.53200    0.30380    0.54240    1.000
    H126     H        0.40680    0.30350    0.51630    1.000
    O75      O        0.96420    0.36847    0.70618    1.000
    C170     C        0.43610    0.39332    0.48296    1.000
    H127     H        0.48020    0.41430    0.46420    1.000
    H128     H        0.39870    0.41330    0.50370    1.000
    O76      O        0.89500    0.44203    0.70260    1.000
    C171     C        0.70780    0.33658    0.41041    1.000
    O77      O        0.40410    0.35121    0.55962    1.000
    C172     C        0.69040    0.28978    0.39963    1.000
    H129     H        0.64030    0.26940    0.41530    1.000
    O78      O        0.10920    0.28770    0.71048    1.000
    C173     C        0.74660    0.27319    0.36586    1.000
    H130     H        0.73260    0.24130    0.35800    1.000
    O79      O        0.22320    0.22283    0.70371    1.000
    C174     C        0.82270    0.30178    0.34317    1.000
    O80      O        0.34000    0.36759    0.46309    1.000
    C175     C        0.84050    0.34845    0.35436    1.000
    H131     H        0.89350    0.36830    0.33910    1.000
    O81      O        0.20080    0.45826    0.29828    1.000
    C176     C        0.78250    0.36663    0.38728    1.000
    H132     H        0.79290    0.39900    0.39420    1.000
    O82      O        0.11670    0.38687    0.29323    1.000
    C177     C        0.88600    0.28153    0.30705    1.000
    C178     C        0.76930    0.37329    0.57403    1.000
    C179     C        0.82770    0.33752    0.59502    1.000
    H133     H        0.83300    0.30640    0.58450    1.000
    C180     C        0.87860    0.34773    0.63174    1.000
    H134     H        0.91980    0.32350    0.64610    1.000
    O83      O        0.61110    0.48920    0.77050    1.000
    C181     C        0.86980    0.39243    0.64739    1.000
    O84      O        0.66270    0.44530    0.72580    1.000
    C182     C        0.81770    0.42827    0.62522    1.000
    H135     H        0.81610    0.45960    0.63530    1.000
    C183     C        0.76740    0.41931    0.58824    1.000
    H136     H        0.73240    0.44420    0.57310    1.000
    C184     C        0.91140    0.40173    0.68875    1.000
    C185     C        0.35670    0.32735    0.59121    1.000
    C186     C        0.37660    0.27977    0.59906    1.000
    H137     H        0.42520    0.26100    0.58160    1.000
    C187     C        0.32490    0.25978    0.63263    1.000
    H138     H        0.34140    0.22750    0.63840    1.000
    C188     C        0.25050    0.28554    0.65773    1.000
    C189     C        0.22810    0.33312    0.64879    1.000
    H139     H        0.17510    0.35130    0.66540    1.000
    C190     C        0.28160    0.35401    0.61647    1.000
    H140     H        0.26750    0.38660    0.61130    1.000
    C191     C        0.19030    0.26338    0.69303    1.000
    C192     C        0.30160    0.38338    0.42725    1.000
    C193     C        0.22680    0.35187    0.40676    1.000
    H141     H        0.20460    0.32240    0.41830    1.000
    C194     C        0.18430    0.36295    0.36966    1.000
    H142     H        0.13250    0.34130    0.35590    1.000
    C195     C        0.21730    0.40588    0.35237    1.000
    C196     C        0.28950    0.43768    0.37353    1.000
    H143     H        0.31050    0.46740    0.36220    1.000
    C197     C        0.33190    0.42690    0.41120    1.000
    H144     H        0.38070    0.44900    0.42560    1.000
    C198     C        0.17460    0.41779    0.31159    1.000
    O85      O        0.65640    0.14259    0.55666    1.000
    C199     C        0.52860    0.14150    0.49892    1.000
    O86      O        0.85610    0.25911    0.70445    1.000
    C200     C        0.58660    0.17232    0.53081    1.000
    H145     H        0.52010    0.18900    0.54550    1.000
    H146     H        0.64250    0.19630    0.51880    1.000
    O87      O        0.96610    0.19211    0.70935    1.000
    C201     C        0.62490    0.11073    0.47789    1.000
    H147     H        0.58350    0.09180    0.45720    1.000
    H148     H        0.66450    0.08870    0.49680    1.000
    O88      O        0.71790    0.14070    0.46082    1.000
    C202     C        0.46730    0.17585    0.46987    1.000
    H149     H        0.53200    0.19620    0.45760    1.000
    H150     H        0.40680    0.19650    0.48370    1.000
    O89      O        0.96420    0.13153    0.29382    1.000
    C203     C        0.43610    0.10668    0.51704    1.000
    H151     H        0.48020    0.08570    0.53580    1.000
    H152     H        0.39870    0.08670    0.49630    1.000
    O90      O        0.89500    0.05797    0.29740    1.000
    C204     C        0.70780    0.16342    0.58959    1.000
    O91      O        0.40410    0.14879    0.44038    1.000
    C205     C        0.69040    0.21022    0.60037    1.000
    H153     H        0.64030    0.23060    0.58470    1.000
    O92      O        0.10920    0.21230    0.28952    1.000
    C206     C        0.74660    0.22681    0.63414    1.000
    H154     H        0.73260    0.25870    0.64200    1.000
    O93      O        0.22320    0.27717    0.29629    1.000
    C207     C        0.82270    0.19822    0.65683    1.000
    O94      O        0.34000    0.13241    0.53691    1.000
    C208     C        0.84050    0.15155    0.64564    1.000
    H155     H        0.89350    0.13170    0.66090    1.000
    O95      O        0.20080    0.04174    0.70172    1.000
    C209     C        0.78250    0.13337    0.61272    1.000
    H156     H        0.79290    0.10100    0.60580    1.000
    O96      O        0.11670    0.11313    0.70677    1.000
    C210     C        0.88600    0.21847    0.69295    1.000
    C211     C        0.76930    0.12671    0.42597    1.000
    C212     C        0.82770    0.16248    0.40498    1.000
    H157     H        0.83300    0.19360    0.41550    1.000
    C213     C        0.87860    0.15227    0.36826    1.000
    H158     H        0.91980    0.17650    0.35390    1.000
    O97      O        0.61110    0.01080    0.22950    1.000
    C214     C        0.86980    0.10757    0.35261    1.000
    O98      O        0.66270    0.05470    0.27420    1.000
    C215     C        0.81770    0.07173    0.37478    1.000
    H159     H        0.81610    0.04040    0.36470    1.000
    C216     C        0.76740    0.08069    0.41176    1.000
    H160     H        0.73240    0.05580    0.42690    1.000
    C217     C        0.91140    0.09827    0.31125    1.000
    C218     C        0.35670    0.17265    0.40879    1.000
    C219     C        0.37660    0.22023    0.40094    1.000
    H161     H        0.42520    0.23900    0.41840    1.000
    C220     C        0.32490    0.24022    0.36737    1.000
    H162     H        0.34140    0.27250    0.36160    1.000
    C221     C        0.25050    0.21446    0.34227    1.000
    C222     C        0.22810    0.16688    0.35121    1.000
    H163     H        0.17510    0.14870    0.33460    1.000
    C223     C        0.28160    0.14599    0.38353    1.000
    H164     H        0.26750    0.11340    0.38870    1.000
    C224     C        0.19030    0.23662    0.30697    1.000
    C225     C        0.30160    0.11662    0.57275    1.000
    C226     C        0.22680    0.14813    0.59324    1.000
    H165     H        0.20460    0.17760    0.58170    1.000
    C227     C        0.18430    0.13705    0.63034    1.000
    H166     H        0.13250    0.15870    0.64410    1.000
    C228     C        0.21730    0.09412    0.64763    1.000
    C229     C        0.28950    0.06232    0.62647    1.000
    H167     H        0.31050    0.03260    0.63780    1.000
    C230     C        0.33190    0.07310    0.58880    1.000
    H168     H        0.38070    0.05100    0.57440    1.000
    C231     C        0.17460    0.08221    0.68841    1.000
    O99      O        0.34360    0.85741    0.05666    1.000
    C232     C        0.47140    0.85850    0.99892    1.000
    O100     O        0.14390    0.74089    0.20445    1.000
    C233     C        0.41340    0.82768    0.03081    1.000
    H169     H        0.47990    0.81100    0.04550    1.000
    H170     H        0.35750    0.80370    0.01880    1.000
    O101     O        0.03390    0.80789    0.20935    1.000
    C234     C        0.37510    0.88927    0.97789    1.000
    H171     H        0.41650    0.90820    0.95720    1.000
    H172     H        0.33550    0.91130    0.99680    1.000
    O102     O        0.28210    0.85930    0.96082    1.000
    C235     C        0.53270    0.82415    0.96987    1.000
    H173     H        0.46800    0.80380    0.95760    1.000
    H174     H        0.59320    0.80350    0.98370    1.000
    O103     O        0.03580    0.86847    0.79382    1.000
    C236     C        0.56390    0.89332    0.01704    1.000
    H175     H        0.51980    0.91430    0.03580    1.000
    H176     H        0.60130    0.91330    0.99630    1.000
    O104     O        0.10500    0.94203    0.79740    1.000
    C237     C        0.29220    0.83658    0.08959    1.000
    O105     O        0.59590    0.85121    0.94038    1.000
    C238     C        0.30960    0.78978    0.10037    1.000
    H177     H        0.35970    0.76940    0.08470    1.000
    O106     O        0.89080    0.78770    0.78952    1.000
    C239     C        0.25340    0.77319    0.13414    1.000
    H178     H        0.26740    0.74130    0.14200    1.000
    O107     O        0.77680    0.72283    0.79629    1.000
    C240     C        0.17730    0.80178    0.15683    1.000
    O108     O        0.66000    0.86759    0.03691    1.000
    C241     C        0.15950    0.84845    0.14564    1.000
    H179     H        0.10650    0.86830    0.16090    1.000
    O109     O        0.79920    0.95826    0.20172    1.000
    C242     C        0.21750    0.86663    0.11272    1.000
    H180     H        0.20710    0.89900    0.10580    1.000
    O110     O        0.88330    0.88687    0.20677    1.000
    C243     C        0.11400    0.78153    0.19295    1.000
    C244     C        0.23070    0.87329    0.92597    1.000
    C245     C        0.17230    0.83752    0.90498    1.000
    H181     H        0.16700    0.80640    0.91550    1.000
    C246     C        0.12140    0.84773    0.86826    1.000
    H182     H        0.08020    0.82350    0.85390    1.000
    O111     O        0.38890    0.98920    0.72950    1.000
    C247     C        0.13020    0.89243    0.85261    1.000
    O112     O        0.33730    0.94530    0.77420    1.000
    C248     C        0.18230    0.92827    0.87478    1.000
    H183     H        0.18390    0.95960    0.86470    1.000
    C249     C        0.23260    0.91931    0.91176    1.000
    H184     H        0.26760    0.94420    0.92690    1.000
    C250     C        0.08860    0.90173    0.81125    1.000
    C251     C        0.64330    0.82735    0.90879    1.000
    C252     C        0.62340    0.77977    0.90094    1.000
    H185     H        0.57480    0.76100    0.91840    1.000
    C253     C        0.67510    0.75978    0.86737    1.000
    H186     H        0.65860    0.72750    0.86160    1.000
    C254     C        0.74950    0.78554    0.84227    1.000
    C255     C        0.77190    0.83312    0.85121    1.000
    H187     H        0.82490    0.85130    0.83460    1.000
    C256     C        0.71840    0.85401    0.88353    1.000
    H188     H        0.73250    0.88660    0.88870    1.000
    C257     C        0.80970    0.76338    0.80697    1.000
    C258     C        0.69840    0.88338    0.07275    1.000
    C259     C        0.77320    0.85187    0.09324    1.000
    H189     H        0.79540    0.82240    0.08170    1.000
    C260     C        0.81570    0.86295    0.13034    1.000
    H190     H        0.86750    0.84130    0.14410    1.000
    C261     C        0.78270    0.90588    0.14763    1.000
    C262     C        0.71050    0.93768    0.12647    1.000
    H191     H        0.68950    0.96740    0.13780    1.000
    C263     C        0.66810    0.92690    0.08880    1.000
    H192     H        0.61930    0.94900    0.07440    1.000
    C264     C        0.82540    0.91779    0.18841    1.000
    Y1       Y        0.94871    0.19161    0.25000    1.000
    Y2       Y        0.12830    0.32601    0.25000    1.000
    Y3       Y        0.05129    0.80839    0.75000    1.000
    Y4       Y        0.87170    0.67399    0.75000    1.000
    Y5       Y        0.05129    0.69161    0.25000    1.000
    Y6       Y        0.87170    0.82601    0.25000    1.000
    Y7       Y        0.94871    0.30839    0.75000    1.000
    Y8       Y        0.12830    0.17399    0.75000    1.000
    Y9       Y        0.83207    0.49018    0.75000    1.000
    N1       N        0.59260    0.45950    0.75000    1.000
    O113     O        0.47530    0.44730    0.75000    1.000
    Y10      Y        0.16793    0.50982    0.25000    1.000
    N2       N        0.40740    0.54050    0.25000    1.000
    O114     O        0.52470    0.55270    0.25000    1.000
    Y11      Y        0.16793    0.99018    0.75000    1.000
    N3       N        0.40740    0.95950    0.75000    1.000
    O115     O        0.52470    0.94730    0.75000    1.000
    Y12      Y        0.83207    0.00982    0.25000    1.000
    N4       N        0.59260    0.04050    0.25000    1.000
    O116     O        0.47530    0.05270    0.25000    1.000
