# CIF file generated by openbabel 3.1.0, see https://openbabel.org
data_I
_chemical_name_common 'image0'
_cell_length_a 13.6363
_cell_length_b 16.8584
_cell_length_c 8.226
_cell_angle_alpha 90
_cell_angle_beta 99.159
_cell_angle_gamma 90
_space_group_name_H-M_alt 'P 1'
_space_group_name_Hall 'P 1'
loop_
    _symmetry_equiv_pos_as_xyz
    x,y,z
loop_
    _atom_site_label
    _atom_site_type_symbol
    _atom_site_fract_x
    _atom_site_fract_y
    _atom_site_fract_z
    _atom_site_occupancy
    Zn1      Zn       0.36334    0.02255    0.37069    1.000
    O1       O        0.41806    0.97879    0.59700    1.000
    O2       O        0.54350    0.89583    0.67730    1.000
    O3       O        0.46150    0.59860    0.64320    1.000
    O4       O        0.32057    0.57198    0.74070    1.000
    O5       O        0.76629    0.86646    0.81110    1.000
    O6       O        0.75757    0.93192    0.57040    1.000
    C1       C        0.80250    0.88690    0.68800    1.000
    C2       C        0.45100    0.91150    0.64080    1.000
    C3       C        0.38150    0.61640    0.68360    1.000
    C4       C        0.90600    0.86120    0.67280    1.000
    C5       C        0.95770    0.89840    0.56070    1.000
    H1       H        0.92550    0.93510    0.48620    1.000
    C6       C        0.05650    0.88097    0.56010    1.000
    H2       H        0.09120    0.90790    0.48860    1.000
    C7       C        0.10540    0.82269    0.66690    1.000
    C8       C        0.05180    0.78330    0.77260    1.000
    H3       H        0.08190    0.74340    0.84090    1.000
    C9       C        0.95380    0.80330    0.77680    1.000
    H4       H        0.91940    0.77750    0.85040    1.000
    C10      C        0.21190    0.80354    0.66740    1.000
    C11      C        0.27950    0.86300    0.64860    1.000
    H5       H        0.25740    0.91490    0.63020    1.000
    C12      C        0.37980    0.84590    0.65690    1.000
    C13      C        0.41260    0.76840    0.67960    1.000
    H6       H        0.47980    0.75690    0.68530    1.000
    C14      C        0.34590    0.70760    0.69390    1.000
    C15      C        0.24620    0.72570    0.68940    1.000
    H7       H        0.20150    0.68520    0.70130    1.000
    O7       O        0.47440    0.62350    0.80330    1.000
    C16      C        0.38380    0.63110    0.75660    1.000
    Zn2      Zn       0.63666    0.52255    0.12931    1.000
    O8       O        0.58194    0.47879    0.90300    1.000
    O9       O        0.45650    0.39583    0.82270    1.000
    O10      O        0.53850    0.09860    0.85680    1.000
    O11      O        0.67943    0.07198    0.75930    1.000
    O12      O        0.23371    0.36646    0.68890    1.000
    O13      O        0.24243    0.43192    0.92960    1.000
    C17      C        0.19750    0.38690    0.81200    1.000
    C18      C        0.54900    0.41150    0.85920    1.000
    C19      C        0.61850    0.11640    0.81640    1.000
    C20      C        0.09400    0.36120    0.82720    1.000
    C21      C        0.04230    0.39840    0.93930    1.000
    H8       H        0.07450    0.43510    0.01380    1.000
    C22      C        0.94350    0.38097    0.93990    1.000
    H9       H        0.90880    0.40790    0.01140    1.000
    C23      C        0.89460    0.32269    0.83310    1.000
    C24      C        0.94820    0.28330    0.72740    1.000
    H10      H        0.91810    0.24340    0.65910    1.000
    C25      C        0.04620    0.30330    0.72320    1.000
    H11      H        0.08060    0.27750    0.64960    1.000
    C26      C        0.78810    0.30354    0.83260    1.000
    C27      C        0.72050    0.36300    0.85140    1.000
    H12      H        0.74260    0.41490    0.86980    1.000
    C28      C        0.62020    0.34590    0.84310    1.000
    C29      C        0.58740    0.26840    0.82040    1.000
    H13      H        0.52020    0.25690    0.81470    1.000
    C30      C        0.65410    0.20760    0.80610    1.000
    C31      C        0.75380    0.22570    0.81060    1.000
    H14      H        0.79850    0.18520    0.79870    1.000
    O14      O        0.52560    0.12350    0.69670    1.000
    C32      C        0.61620    0.13110    0.74340    1.000
    Zn3      Zn       0.63666    0.97745    0.62931    1.000
    O15      O        0.58194    0.02121    0.40300    1.000
    O16      O        0.45650    0.10417    0.32270    1.000
    O17      O        0.53850    0.40140    0.35680    1.000
    O18      O        0.67943    0.42802    0.25930    1.000
    O19      O        0.23371    0.13354    0.18890    1.000
    O20      O        0.24243    0.06808    0.42960    1.000
    C33      C        0.19750    0.11310    0.31200    1.000
    C34      C        0.54900    0.08850    0.35920    1.000
    C35      C        0.61850    0.38360    0.31640    1.000
    C36      C        0.09400    0.13880    0.32720    1.000
    C37      C        0.04230    0.10160    0.43930    1.000
    H15      H        0.07450    0.06490    0.51380    1.000
    C38      C        0.94350    0.11903    0.43990    1.000
    H16      H        0.90880    0.09210    0.51140    1.000
    C39      C        0.89460    0.17731    0.33310    1.000
    C40      C        0.94820    0.21670    0.22740    1.000
    H17      H        0.91810    0.25660    0.15910    1.000
    C41      C        0.04620    0.19670    0.22320    1.000
    H18      H        0.08060    0.22250    0.14960    1.000
    C42      C        0.78810    0.19646    0.33260    1.000
    C43      C        0.72050    0.13700    0.35140    1.000
    H19      H        0.74260    0.08510    0.36980    1.000
    C44      C        0.62020    0.15410    0.34310    1.000
    C45      C        0.58740    0.23160    0.32040    1.000
    H20      H        0.52020    0.24310    0.31470    1.000
    C46      C        0.65410    0.29240    0.30610    1.000
    C47      C        0.75380    0.27430    0.31060    1.000
    H21      H        0.79850    0.31480    0.29870    1.000
    O21      O        0.52560    0.37650    0.19670    1.000
    C48      C        0.61620    0.36890    0.24340    1.000
    Zn4      Zn       0.36334    0.47745    0.87069    1.000
    O22      O        0.41806    0.52121    0.09700    1.000
    O23      O        0.54350    0.60417    0.17730    1.000
    O24      O        0.46150    0.90140    0.14320    1.000
    O25      O        0.32057    0.92802    0.24070    1.000
    O26      O        0.76629    0.63354    0.31110    1.000
    O27      O        0.75757    0.56808    0.07040    1.000
    C49      C        0.80250    0.61310    0.18800    1.000
    C50      C        0.45100    0.58850    0.14080    1.000
    C51      C        0.38150    0.88360    0.18360    1.000
    C52      C        0.90600    0.63880    0.17280    1.000
    C53      C        0.95770    0.60160    0.06070    1.000
    H22      H        0.92550    0.56490    0.98620    1.000
    C54      C        0.05650    0.61903    0.06010    1.000
    H23      H        0.09120    0.59210    0.98860    1.000
    C55      C        0.10540    0.67731    0.16690    1.000
    C56      C        0.05180    0.71670    0.27260    1.000
    H24      H        0.08190    0.75660    0.34090    1.000
    C57      C        0.95380    0.69670    0.27680    1.000
    H25      H        0.91940    0.72250    0.35040    1.000
    C58      C        0.21190    0.69646    0.16740    1.000
    C59      C        0.27950    0.63700    0.14860    1.000
    H26      H        0.25740    0.58510    0.13020    1.000
    C60      C        0.37980    0.65410    0.15690    1.000
    C61      C        0.41260    0.73160    0.17960    1.000
    H27      H        0.47980    0.74310    0.18530    1.000
    C62      C        0.34590    0.79240    0.19390    1.000
    C63      C        0.24620    0.77430    0.18940    1.000
    H28      H        0.20150    0.81480    0.20130    1.000
    O28      O        0.47440    0.87650    0.30330    1.000
    C64      C        0.38380    0.86890    0.25660    1.000
