# CIF file generated by openbabel 3.1.0, see https://openbabel.org
data_I
_chemical_name_common 'CUGVUW_clean'
_cell_length_a 8.981
_cell_length_b 16.0015
_cell_length_c 16.0015
_cell_angle_alpha 63.4167
_cell_angle_beta 79.2172
_cell_angle_gamma 100.783
_space_group_name_H-M_alt 'P 1'
_space_group_name_Hall 'P 1'
loop_
    _symmetry_equiv_pos_as_xyz
    x,y,z
loop_
    _atom_site_label
    _atom_site_type_symbol
    _atom_site_fract_x
    _atom_site_fract_y
    _atom_site_fract_z
    _atom_site_occupancy
    Cu1      Cu       0.00000    0.00000    0.50000    1.000
    Cu2      Cu       0.50000    0.50000    0.50000    1.000
    Cu3      Cu       0.00000    0.50000    0.00000    1.000
    H1       H        0.32790    0.22760    0.63820    1.000
    H2       H        0.08830    0.11820    0.74180    1.000
    H3       H        0.91170    0.33170    0.69910    1.000
    H4       H        0.90300    0.63910    0.62790    1.000
    H5       H        0.85140    0.77890    0.61530    1.000
    H6       H        0.21690    0.94490    0.38140    1.000
    H7       H        0.28550    0.81100    0.39060    1.000
    H8       H        0.96610    0.63820    0.13420    1.000
    H9       H        0.83010    0.74180    0.14000    1.000
    H10      H        0.61080    0.69910    0.96920    1.000
    H11      H        0.53090    0.62790    0.73300    1.000
    H12      H        0.46670    0.61530    0.60580    1.000
    H13      H        0.59830    0.38140    0.67370    1.000
    H14      H        0.67610    0.39060    0.79840    1.000
    H15      H        0.10030    0.13420    0.22760    1.000
    H16      H        0.97010    0.14000    0.11820    1.000
    H17      H        0.58000    0.96920    0.33170    1.000
    H18      H        0.26390    0.73300    0.63910    1.000
    H19      H        0.07250    0.60580    0.77890    1.000
    H20      H        0.27200    0.67370    0.94490    1.000
    H21      H        0.47450    0.79840    0.81100    1.000
    H22      H        0.67210    0.77240    0.36180    1.000
    H23      H        0.91170    0.88180    0.25820    1.000
    H24      H        0.08830    0.66830    0.30090    1.000
    H25      H        0.09700    0.36090    0.37210    1.000
    H26      H        0.14860    0.22110    0.38470    1.000
    H27      H        0.78310    0.05510    0.61860    1.000
    H28      H        0.71450    0.18900    0.60940    1.000
    H29      H        0.03390    0.36180    0.86580    1.000
    H30      H        0.16990    0.25820    0.86000    1.000
    H31      H        0.38920    0.30090    0.03080    1.000
    H32      H        0.46910    0.37210    0.26700    1.000
    H33      H        0.53330    0.38470    0.39420    1.000
    H34      H        0.40170    0.61860    0.32630    1.000
    H35      H        0.32390    0.60940    0.20160    1.000
    H36      H        0.89970    0.86580    0.77240    1.000
    H37      H        0.02990    0.86000    0.88180    1.000
    H38      H        0.42000    0.03080    0.66830    1.000
    H39      H        0.73610    0.26700    0.36090    1.000
    H40      H        0.92750    0.39420    0.22110    1.000
    H41      H        0.72800    0.32630    0.05510    1.000
    H42      H        0.52550    0.20160    0.18900    1.000
    C1       C        0.24320    0.25070    0.65020    1.000
    C2       C        0.09890    0.18500    0.71230    1.000
    C3       C        0.99729    0.30908    0.68761    1.000
    C4       C        0.14032    0.37538    0.62632    1.000
    C5       C        0.16988    0.48209    0.57775    1.000
    C6       C        0.15656    0.62316    0.52718    1.000
    C7       C        0.10537    0.70980    0.51359    1.000
    C8       C        0.97119    0.70071    0.57884    1.000
    C9       C        0.94022    0.78523    0.56967    1.000
    C10      C        0.15537    0.88268    0.43297    1.000
    C11      C        0.19706    0.80276    0.43768    1.000
    C12      C        0.89340    0.65020    0.09910    1.000
    C13      C        0.81120    0.71230    0.10270    1.000
    C14      C        0.68490    0.68761    0.00331    1.000
    C15      C        0.76664    0.62632    0.99830    1.000
    C16      C        0.74763    0.57775    0.94016    1.000
    C17      C        0.68374    0.52718    0.84966    1.000
    C18      C        0.61896    0.51359    0.77661    1.000
    C19      C        0.55003    0.57884    0.72045    1.000
    C20      C        0.50989    0.56967    0.64510    1.000
    C21      C        0.58834    0.43297    0.68435    1.000
    C22      C        0.63474    0.43768    0.75956    1.000
    C23      C        0.99250    0.09910    0.25070    1.000
    C24      C        0.91390    0.10270    0.18500    1.000
    C25      C        0.68821    0.00331    0.30908    1.000
    C26      C        0.76494    0.99830    0.37538    1.000
    C27      C        0.68779    0.94016    0.48209    1.000
    C28      C        0.53340    0.84966    0.62316    1.000
    C29      C        0.39557    0.77661    0.70980    1.000
    C30      C        0.27048    0.72045    0.70071    1.000
    C31      C        0.15499    0.64510    0.78523    1.000
    C32      C        0.27269    0.68435    0.88268    1.000
    C33      C        0.39430    0.75956    0.80276    1.000
    C34      C        0.75680    0.74930    0.34980    1.000
    C35      C        0.90110    0.81500    0.28770    1.000
    C36      C        0.00271    0.69092    0.31239    1.000
    C37      C        0.85968    0.62462    0.37368    1.000
    C38      C        0.83012    0.51791    0.42225    1.000
    C39      C        0.84344    0.37684    0.47282    1.000
    C40      C        0.89463    0.29020    0.48641    1.000
    C41      C        0.02881    0.29929    0.42116    1.000
    C42      C        0.05978    0.21477    0.43033    1.000
    C43      C        0.84463    0.11732    0.56703    1.000
    C44      C        0.80294    0.19724    0.56232    1.000
    C45      C        0.10660    0.34980    0.90090    1.000
    C46      C        0.18880    0.28770    0.89730    1.000
    C47      C        0.31510    0.31239    0.99669    1.000
    C48      C        0.23336    0.37368    0.00170    1.000
    C49      C        0.25237    0.42225    0.05984    1.000
    C50      C        0.31626    0.47282    0.15034    1.000
    C51      C        0.38104    0.48641    0.22339    1.000
    C52      C        0.44997    0.42116    0.27955    1.000
    C53      C        0.49011    0.43033    0.35490    1.000
    C54      C        0.41166    0.56703    0.31565    1.000
    C55      C        0.36526    0.56232    0.24044    1.000
    C56      C        0.00750    0.90090    0.74930    1.000
    C57      C        0.08610    0.89730    0.81500    1.000
    C58      C        0.31179    0.99669    0.69092    1.000
    C59      C        0.23506    0.00170    0.62462    1.000
    C60      C        0.31221    0.05984    0.51791    1.000
    C61      C        0.46660    0.15034    0.37684    1.000
    C62      C        0.60443    0.22339    0.29020    1.000
    C63      C        0.72952    0.27955    0.29929    1.000
    C64      C        0.84501    0.35490    0.21477    1.000
    C65      C        0.72731    0.31565    0.11732    1.000
    C66      C        0.60570    0.24044    0.19724    1.000
    N1       N        0.26684    0.34686    0.60614    1.000
    N2       N        0.97407    0.21194    0.73243    1.000
    N3       N        0.31353    0.54224    0.51685    1.000
    N4       N        0.30721    0.63630    0.48227    1.000
    N5       N        0.06436    0.52894    0.58806    1.000
    N6       N        0.03085    0.87519    0.49904    1.000
    N7       N        0.87298    0.60614    0.04700    1.000
    N8       N        0.70650    0.73243    0.05563    1.000
    N9       N        0.83038    0.51685    0.94091    1.000
    N10      N        0.78948    0.48227    0.88143    1.000
    N11      N        0.65242    0.58806    0.88300    1.000
    N12      N        0.52989    0.49904    0.62577    1.000
    N13      N        0.91998    0.04700    0.34686    1.000
    N14      N        0.76213    0.05563    0.21194    1.000
    N15      N        0.77129    0.94091    0.54224    1.000
    N16      N        0.67091    0.88143    0.63630    1.000
    N17      N        0.53542    0.88300    0.52894    1.000
    N18      N        0.15566    0.62577    0.87519    1.000
    N19      N        0.73316    0.65314    0.39386    1.000
    N20      N        0.02593    0.78806    0.26757    1.000
    N21      N        0.68647    0.45776    0.48315    1.000
    N22      N        0.69279    0.36370    0.51773    1.000
    N23      N        0.93564    0.47106    0.41194    1.000
    N24      N        0.96915    0.12481    0.50096    1.000
    N25      N        0.12702    0.39386    0.95300    1.000
    N26      N        0.29350    0.26757    0.94437    1.000
    N27      N        0.16962    0.48315    0.05909    1.000
    N28      N        0.21052    0.51773    0.11857    1.000
    N29      N        0.34758    0.41194    0.11700    1.000
    N30      N        0.47011    0.50096    0.37423    1.000
    N31      N        0.08002    0.95300    0.65314    1.000
    N32      N        0.23787    0.94437    0.78806    1.000
    N33      N        0.22871    0.05909    0.45776    1.000
    N34      N        0.32909    0.11857    0.36370    1.000
    N35      N        0.46458    0.11700    0.47106    1.000
    N36      N        0.84434    0.37423    0.12481    1.000
