# CIF file generated by openbabel 3.1.0, see https://openbabel.org
data_I
_chemical_name_common 'image0'
_cell_length_a 13.0943
_cell_length_b 26.7035
_cell_length_c 13.132
_cell_angle_alpha 90
_cell_angle_beta 115.872
_cell_angle_gamma 90
_space_group_name_H-M_alt 'P 1'
_space_group_name_Hall 'P 1'
loop_
    _symmetry_equiv_pos_as_xyz
    x,y,z
loop_
    _atom_site_label
    _atom_site_type_symbol
    _atom_site_fract_x
    _atom_site_fract_y
    _atom_site_fract_z
    _atom_site_occupancy
    Eu1      Eu       0.17896    0.50456    0.58141    1.000
    Eu2      Eu       0.54888    0.50655    0.99621    1.000
    C1       C        0.02260    0.57760    0.38810    1.000
    C2       C        0.98800    0.62760    0.33490    1.000
    C3       C        0.88440    0.64830    0.32020    1.000
    H1       H        0.83480    0.62940    0.33810    1.000
    C4       C        0.85470    0.69630    0.27950    1.000
    H2       H        0.78530    0.70960    0.26950    1.000
    C5       C        0.06080    0.65600    0.30620    1.000
    H3       H        0.13030    0.64270    0.31660    1.000
    C6       C        0.03050    0.70370    0.26230    1.000
    C7       C        0.92830    0.72450    0.25370    1.000
    C8       C        0.92330    0.77650    0.21530    1.000
    C9       C        0.09430    0.74010    0.22260    1.000
    C10      C        0.09790    0.72190    0.11440    1.000
    H4       H        0.12850    0.74700    0.08380    1.000
    H5       H        0.01900    0.71490    0.06180    1.000
    H6       H        0.14320    0.69200    0.12790    1.000
    C11      C        0.21340    0.75050    0.31430    1.000
    H7       H        0.24750    0.77650    0.28950    1.000
    H8       H        0.25760    0.72040    0.32560    1.000
    H9       H        0.21330    0.76010    0.38380    1.000
    C12      C        0.01870    0.78640    0.19850    1.000
    C13      C        0.03630    0.83390    0.16670    1.000
    H10      H        0.10110    0.84070    0.15680    1.000
    C14      C        0.84320    0.81350    0.19860    1.000
    H11      H        0.77950    0.80720    0.21060    1.000
    C15      C        0.86080    0.86030    0.16340    1.000
    H12      H        0.80610    0.88500    0.14860    1.000
    C16      C        0.95700    0.87130    0.14950    1.000
    C17      C        0.97570    0.92310    0.11650    1.000
    C18      C        0.37800    0.58140    0.79440    1.000
    C19      C        0.39770    0.63340    0.76230    1.000
    C20      C        0.47950    0.66360    0.84190    1.000
    H13      H        0.52270    0.65170    0.91470    1.000
    C21      C        0.33360    0.65050    0.65300    1.000
    H14      H        0.27960    0.62980    0.59950    1.000
    C22      C        0.35030    0.69860    0.62370    1.000
    H15      H        0.30770    0.71050    0.55060    1.000
    C23      C        0.43130    0.72900    0.70480    1.000
    C24      C        0.49680    0.71120    0.81330    1.000
    C25      C        0.58300    0.75040    0.88610    1.000
    C26      C        0.70270    0.73210    0.92660    1.000
    H16      H        0.71420    0.72090    0.86380    1.000
    H17      H        0.71740    0.70520    0.97870    1.000
    H18      H        0.75500    0.75910    0.96370    1.000
    C27      C        0.55980    0.76620    0.98620    1.000
    H19      H        0.60680    0.79460    0.02310    1.000
    H20      H        0.57980    0.73900    0.03830    1.000
    H21      H        0.47950    0.77450    0.96020    1.000
    C28      C        0.46680    0.78090    0.69680    1.000
    C29      C        0.55440    0.79360    0.80100    1.000
    C30      C        0.60440    0.84080    0.81680    1.000
    H22      H        0.66340    0.84970    0.88590    1.000
    C31      C        0.42500    0.81420    0.60980    1.000
    H23      H        0.36390    0.80570    0.54190    1.000
    C32      C        0.47540    0.86150    0.62440    1.000
    H24      H        0.44920    0.88440    0.56510    1.000
    C33      C        0.56400    0.87410    0.72670    1.000
    C34      C        0.61810    0.92540    0.73950    1.000
    N1       N        0.68400    0.56240    0.89600    1.000
    O1       O        0.94720    0.54769    0.38710    1.000
    O2       O        0.12600    0.56830    0.43790    1.000
    O3       O        0.88970    0.95153    0.07470    1.000
    O4       O        0.07400    0.93482    0.13110    1.000
    O5       O        0.31230    0.55324    0.71740    1.000
    O6       O        0.43120    0.56854    0.89520    1.000
    O7       O        0.57600    0.95340    0.65460    1.000
    O8       O        0.69510    0.93683    0.83050    1.000
    O9       O        0.68780    0.57410    0.98920    1.000
    O10      O        0.61420    0.53060    0.85090    1.000
    O11      O        0.73150    0.58800    0.85700    1.000
    Eu3      Eu       0.82104    0.00456    0.91859    1.000
    Eu4      Eu       0.45112    0.00655    0.50379    1.000
    C35      C        0.97740    0.07760    0.11190    1.000
    C36      C        0.01200    0.12760    0.16510    1.000
    C37      C        0.11560    0.14830    0.17980    1.000
    H25      H        0.16520    0.12940    0.16190    1.000
    C38      C        0.14530    0.19630    0.22050    1.000
    H26      H        0.21470    0.20960    0.23050    1.000
    C39      C        0.93920    0.15600    0.19380    1.000
    H27      H        0.86970    0.14270    0.18340    1.000
    C40      C        0.96950    0.20370    0.23770    1.000
    C41      C        0.07170    0.22450    0.24630    1.000
    C42      C        0.07670    0.27650    0.28470    1.000
    C43      C        0.90570    0.24010    0.27740    1.000
    C44      C        0.90210    0.22190    0.38560    1.000
    H28      H        0.87150    0.24700    0.41620    1.000
    H29      H        0.98100    0.21490    0.43820    1.000
    H30      H        0.85680    0.19200    0.37210    1.000
    C45      C        0.78660    0.25050    0.18570    1.000
    H31      H        0.75250    0.27650    0.21050    1.000
    H32      H        0.74240    0.22040    0.17440    1.000
    H33      H        0.78670    0.26010    0.11620    1.000
    C46      C        0.98130    0.28640    0.30150    1.000
    C47      C        0.96370    0.33390    0.33330    1.000
    H34      H        0.89890    0.34070    0.34320    1.000
    C48      C        0.15680    0.31350    0.30140    1.000
    H35      H        0.22050    0.30720    0.28940    1.000
    C49      C        0.13920    0.36030    0.33660    1.000
    H36      H        0.19390    0.38500    0.35140    1.000
    C50      C        0.04300    0.37130    0.35050    1.000
    C51      C        0.02430    0.42310    0.38350    1.000
    C52      C        0.62200    0.08140    0.70560    1.000
    C53      C        0.60230    0.13340    0.73770    1.000
    C54      C        0.52050    0.16360    0.65810    1.000
    H37      H        0.47730    0.15170    0.58530    1.000
    C55      C        0.66640    0.15050    0.84700    1.000
    H38      H        0.72040    0.12980    0.90050    1.000
    C56      C        0.64970    0.19860    0.87630    1.000
    H39      H        0.69230    0.21050    0.94940    1.000
    C57      C        0.56870    0.22900    0.79520    1.000
    C58      C        0.50320    0.21120    0.68670    1.000
    C59      C        0.41700    0.25040    0.61390    1.000
    C60      C        0.29730    0.23210    0.57340    1.000
    H40      H        0.28580    0.22090    0.63620    1.000
    H41      H        0.28260    0.20520    0.52130    1.000
    H42      H        0.24500    0.25910    0.53630    1.000
    C61      C        0.44020    0.26620    0.51380    1.000
    H43      H        0.39320    0.29460    0.47690    1.000
    H44      H        0.42020    0.23900    0.46170    1.000
    H45      H        0.52050    0.27450    0.53980    1.000
    C62      C        0.53320    0.28090    0.80320    1.000
    C63      C        0.44560    0.29360    0.69900    1.000
    C64      C        0.39560    0.34080    0.68320    1.000
    H46      H        0.33660    0.34970    0.61410    1.000
    C65      C        0.57500    0.31420    0.89020    1.000
    H47      H        0.63610    0.30570    0.95810    1.000
    C66      C        0.52460    0.36150    0.87560    1.000
    H48      H        0.55080    0.38440    0.93490    1.000
    C67      C        0.43600    0.37410    0.77330    1.000
    C68      C        0.38190    0.42540    0.76050    1.000
    N2       N        0.31600    0.06240    0.60400    1.000
    O12      O        0.05280    0.04769    0.11290    1.000
    O13      O        0.87400    0.06830    0.06210    1.000
    O14      O        0.11030    0.45153    0.42530    1.000
    O15      O        0.92600    0.43482    0.36890    1.000
    O16      O        0.68770    0.05324    0.78260    1.000
    O17      O        0.56880    0.06854    0.60480    1.000
    O18      O        0.42400    0.45340    0.84540    1.000
    O19      O        0.30490    0.43683    0.66950    1.000
    O20      O        0.31220    0.07410    0.51080    1.000
    O21      O        0.38580    0.03060    0.64910    1.000
    O22      O        0.26850    0.08800    0.64300    1.000
    Eu5      Eu       0.82104    0.49544    0.41859    1.000
    Eu6      Eu       0.45112    0.49345    0.00379    1.000
    C69      C        0.97740    0.42240    0.61190    1.000
    C70      C        0.01200    0.37240    0.66510    1.000
    C71      C        0.11560    0.35170    0.67980    1.000
    H49      H        0.16520    0.37060    0.66190    1.000
    C72      C        0.14530    0.30370    0.72050    1.000
    H50      H        0.21470    0.29040    0.73050    1.000
    C73      C        0.93920    0.34400    0.69380    1.000
    H51      H        0.86970    0.35730    0.68340    1.000
    C74      C        0.96950    0.29630    0.73770    1.000
    C75      C        0.07170    0.27550    0.74630    1.000
    C76      C        0.07670    0.22350    0.78470    1.000
    C77      C        0.90570    0.25990    0.77740    1.000
    C78      C        0.90210    0.27810    0.88560    1.000
    H52      H        0.87150    0.25300    0.91620    1.000
    H53      H        0.98100    0.28510    0.93820    1.000
    H54      H        0.85680    0.30800    0.87210    1.000
    C79      C        0.78660    0.24950    0.68570    1.000
    H55      H        0.75250    0.22350    0.71050    1.000
    H56      H        0.74240    0.27960    0.67440    1.000
    H57      H        0.78670    0.23990    0.61620    1.000
    C80      C        0.98130    0.21360    0.80150    1.000
    C81      C        0.96370    0.16610    0.83330    1.000
    H58      H        0.89890    0.15930    0.84320    1.000
    C82      C        0.15680    0.18650    0.80140    1.000
    H59      H        0.22050    0.19280    0.78940    1.000
    C83      C        0.13920    0.13970    0.83660    1.000
    H60      H        0.19390    0.11500    0.85140    1.000
    C84      C        0.04300    0.12870    0.85050    1.000
    C85      C        0.02430    0.07690    0.88350    1.000
    C86      C        0.62200    0.41860    0.20560    1.000
    C87      C        0.60230    0.36660    0.23770    1.000
    C88      C        0.52050    0.33640    0.15810    1.000
    H61      H        0.47730    0.34830    0.08530    1.000
    C89      C        0.66640    0.34950    0.34700    1.000
    H62      H        0.72040    0.37020    0.40050    1.000
    C90      C        0.64970    0.30140    0.37630    1.000
    H63      H        0.69230    0.28950    0.44940    1.000
    C91      C        0.56870    0.27100    0.29520    1.000
    C92      C        0.50320    0.28880    0.18670    1.000
    C93      C        0.41700    0.24960    0.11390    1.000
    C94      C        0.29730    0.26790    0.07340    1.000
    H64      H        0.28580    0.27910    0.13620    1.000
    H65      H        0.28260    0.29480    0.02130    1.000
    H66      H        0.24500    0.24090    0.03630    1.000
    C95      C        0.44020    0.23380    0.01380    1.000
    H67      H        0.39320    0.20540    0.97690    1.000
    H68      H        0.42020    0.26100    0.96170    1.000
    H69      H        0.52050    0.22550    0.03980    1.000
    C96      C        0.53320    0.21910    0.30320    1.000
    C97      C        0.44560    0.20640    0.19900    1.000
    C98      C        0.39560    0.15920    0.18320    1.000
    H70      H        0.33660    0.15030    0.11410    1.000
    C99      C        0.57500    0.18580    0.39020    1.000
    H71      H        0.63610    0.19430    0.45810    1.000
    C100     C        0.52460    0.13850    0.37560    1.000
    H72      H        0.55080    0.11560    0.43490    1.000
    C101     C        0.43600    0.12590    0.27330    1.000
    C102     C        0.38190    0.07460    0.26050    1.000
    N3       N        0.31600    0.43760    0.10400    1.000
    O23      O        0.05280    0.45231    0.61290    1.000
    O24      O        0.87400    0.43170    0.56210    1.000
    O25      O        0.11030    0.04847    0.92530    1.000
    O26      O        0.92600    0.06518    0.86890    1.000
    O27      O        0.68770    0.44676    0.28260    1.000
    O28      O        0.56880    0.43146    0.10480    1.000
    O29      O        0.42400    0.04660    0.34540    1.000
    O30      O        0.30490    0.06317    0.16950    1.000
    O31      O        0.31220    0.42590    0.01080    1.000
    O32      O        0.38580    0.46940    0.14910    1.000
    O33      O        0.26850    0.41200    0.14300    1.000
    Eu7      Eu       0.17896    0.99544    0.08141    1.000
    Eu8      Eu       0.54888    0.99345    0.49621    1.000
    C103     C        0.02260    0.92240    0.88810    1.000
    C104     C        0.98800    0.87240    0.83490    1.000
    C105     C        0.88440    0.85170    0.82020    1.000
    H73      H        0.83480    0.87060    0.83810    1.000
    C106     C        0.85470    0.80370    0.77950    1.000
    H74      H        0.78530    0.79040    0.76950    1.000
    C107     C        0.06080    0.84400    0.80620    1.000
    H75      H        0.13030    0.85730    0.81660    1.000
    C108     C        0.03050    0.79630    0.76230    1.000
    C109     C        0.92830    0.77550    0.75370    1.000
    C110     C        0.92330    0.72350    0.71530    1.000
    C111     C        0.09430    0.75990    0.72260    1.000
    C112     C        0.09790    0.77810    0.61440    1.000
    H76      H        0.12850    0.75300    0.58380    1.000
    H77      H        0.01900    0.78510    0.56180    1.000
    H78      H        0.14320    0.80800    0.62790    1.000
    C113     C        0.21340    0.74950    0.81430    1.000
    H79      H        0.24750    0.72350    0.78950    1.000
    H80      H        0.25760    0.77960    0.82560    1.000
    H81      H        0.21330    0.73990    0.88380    1.000
    C114     C        0.01870    0.71360    0.69850    1.000
    C115     C        0.03630    0.66610    0.66670    1.000
    H82      H        0.10110    0.65930    0.65680    1.000
    C116     C        0.84320    0.68650    0.69860    1.000
    H83      H        0.77950    0.69280    0.71060    1.000
    C117     C        0.86080    0.63970    0.66340    1.000
    H84      H        0.80610    0.61500    0.64860    1.000
    C118     C        0.95700    0.62870    0.64950    1.000
    C119     C        0.97570    0.57690    0.61650    1.000
    C120     C        0.37800    0.91860    0.29440    1.000
    C121     C        0.39770    0.86660    0.26230    1.000
    C122     C        0.47950    0.83640    0.34190    1.000
    H85      H        0.52270    0.84830    0.41470    1.000
    C123     C        0.33360    0.84950    0.15300    1.000
    H86      H        0.27960    0.87020    0.09950    1.000
    C124     C        0.35030    0.80140    0.12370    1.000
    H87      H        0.30770    0.78950    0.05060    1.000
    C125     C        0.43130    0.77100    0.20480    1.000
    C126     C        0.49680    0.78880    0.31330    1.000
    C127     C        0.58300    0.74960    0.38610    1.000
    C128     C        0.70270    0.76790    0.42660    1.000
    H88      H        0.71420    0.77910    0.36380    1.000
    H89      H        0.71740    0.79480    0.47870    1.000
    H90      H        0.75500    0.74090    0.46370    1.000
    C129     C        0.55980    0.73380    0.48620    1.000
    H91      H        0.60680    0.70540    0.52310    1.000
    H92      H        0.57980    0.76100    0.53830    1.000
    H93      H        0.47950    0.72550    0.46020    1.000
    C130     C        0.46680    0.71910    0.19680    1.000
    C131     C        0.55440    0.70640    0.30100    1.000
    C132     C        0.60440    0.65920    0.31680    1.000
    H94      H        0.66340    0.65030    0.38590    1.000
    C133     C        0.42500    0.68580    0.10980    1.000
    H95      H        0.36390    0.69430    0.04190    1.000
    C134     C        0.47540    0.63850    0.12440    1.000
    H96      H        0.44920    0.61560    0.06510    1.000
    C135     C        0.56400    0.62590    0.22670    1.000
    C136     C        0.61810    0.57460    0.23950    1.000
    N4       N        0.68400    0.93760    0.39600    1.000
    O34      O        0.94720    0.95231    0.88710    1.000
    O35      O        0.12600    0.93170    0.93790    1.000
    O36      O        0.88970    0.54847    0.57470    1.000
    O37      O        0.07400    0.56518    0.63110    1.000
    O38      O        0.31230    0.94676    0.21740    1.000
    O39      O        0.43120    0.93146    0.39520    1.000
    O40      O        0.57600    0.54660    0.15460    1.000
    O41      O        0.69510    0.56317    0.33050    1.000
    O42      O        0.68780    0.92590    0.48920    1.000
    O43      O        0.61420    0.96940    0.35090    1.000
    O44      O        0.73150    0.91200    0.35700    1.000
