# CIF file generated by openbabel 3.1.0, see https://openbabel.org
data_I
_chemical_name_common 'image0'
_cell_length_a 27.1683
_cell_length_b 15.3846
_cell_length_c 19.2713
_cell_angle_alpha 90
_cell_angle_beta 98.162
_cell_angle_gamma 90
_space_group_name_H-M_alt 'P 1'
_space_group_name_Hall 'P 1'
loop_
    _symmetry_equiv_pos_as_xyz
    x,y,z
loop_
    _atom_site_label
    _atom_site_type_symbol
    _atom_site_fract_x
    _atom_site_fract_y
    _atom_site_fract_z
    _atom_site_occupancy
    Br1      Br       0.18388    0.64376    0.42336    1.000
    C1       C        0.53018    0.81350    0.31630    1.000
    C2       C        0.50538    0.74910    0.34870    1.000
    C3       C        0.53214    0.70080    0.40270    1.000
    C4       C        0.58149    0.72260    0.42750    1.000
    H1       H        0.59930    0.68950    0.46450    1.000
    C5       C        0.60506    0.79210    0.39910    1.000
    C6       C        0.57943    0.83440    0.34250    1.000
    H2       H        0.59560    0.87920    0.32040    1.000
    O1       O        0.45509    0.73590    0.32990    1.000
    C7       C        0.42888    0.79220    0.37310    1.000
    H3       H        0.43600    0.85380    0.36350    1.000
    H4       H        0.44040    0.78070    0.42330    1.000
    C8       C        0.37373    0.77560    0.35700    1.000
    C9       C        0.34609    0.77470    0.41160    1.000
    H5       H        0.36300    0.78060    0.45800    1.000
    N1       N        0.29627    0.76570    0.40270    1.000
    C10      C        0.27330    0.75680    0.33760    1.000
    H6       H        0.23820    0.75030    0.33030    1.000
    C11      C        0.29820    0.75660    0.28020    1.000
    H7       H        0.28050    0.75080    0.23430    1.000
    C12      C        0.34970    0.76480    0.29040    1.000
    H8       H        0.36780    0.76290    0.25170    1.000
    C13      C        0.65810    0.81880    0.43050    1.000
    C14      C        0.69330    0.74300    0.42470    1.000
    H9       H        0.72750    0.76130    0.44130    1.000
    H10      H        0.69080    0.72450    0.37560    1.000
    H11      H        0.68440    0.69450    0.45340    1.000
    C15      C        0.67680    0.89730    0.39190    1.000
    H12      H        0.65400    0.94630    0.39370    1.000
    H13      H        0.67820    0.88170    0.34300    1.000
    H14      H        0.71000    0.91370    0.41470    1.000
    C16      C        0.65860    0.84390    0.50780    1.000
    H15      H        0.64370    0.79700    0.53220    1.000
    H16      H        0.63950    0.89750    0.51060    1.000
    H17      H        0.69300    0.85310    0.52980    1.000
    S1       S        0.50367    0.62185    0.45109    1.000
    C17      C        0.47130    0.55060    0.38770    1.000
    C18      C        0.49685    0.49670    0.34740    1.000
    C19      C        0.46976    0.43670    0.30210    1.000
    C20      C        0.41910    0.42830    0.30120    1.000
    H18      H        0.40130    0.38750    0.27020    1.000
    C21      C        0.39324    0.47820    0.34460    1.000
    C22      C        0.42005    0.54120    0.38570    1.000
    H19      H        0.40300    0.57900    0.41320    1.000
    O2       O        0.54803    0.50090    0.35230    1.000
    C23      C        0.57046    0.43760    0.40170    1.000
    H20      H        0.55940    0.37870    0.38590    1.000
    H21      H        0.55980    0.44810    0.44800    1.000
    C24      C        0.62610    0.44310    0.40820    1.000
    C25      C        0.65373    0.37260    0.43430    1.000
    H22      H        0.63650    0.32070    0.44250    1.000
    N2       N        0.70376    0.37240    0.44910    1.000
    C26      C        0.72732    0.44490    0.43400    1.000
    H23      H        0.76260    0.44660    0.44420    1.000
    C27      C        0.70290    0.51680    0.40450    1.000
    H24      H        0.72110    0.56600    0.39260    1.000
    C28      C        0.65130    0.51680    0.39220    1.000
    H25      H        0.63360    0.56660    0.37320    1.000
    C29      C        0.33790    0.46240    0.34810    1.000
    C30      C        0.33500    0.39070    0.40250    1.000
    H26      H        0.35340    0.40870    0.44760    1.000
    H27      H        0.34950    0.33710    0.38680    1.000
    H28      H        0.30010    0.38040    0.40780    1.000
    C31      C        0.31150    0.42540    0.28320    1.000
    H29      H        0.32550    0.36820    0.27500    1.000
    H30      H        0.31520    0.46400    0.24390    1.000
    H31      H        0.27610    0.41920    0.28750    1.000
    C32      C        0.31210    0.53770    0.37600    1.000
    H32      H        0.32010    0.59110    0.35210    1.000
    H33      H        0.32310    0.54350    0.42640    1.000
    H34      H        0.27610    0.52810    0.36770    1.000
    Br2      Br       0.68388    0.14376    0.42336    1.000
    C33      C        0.03018    0.31350    0.31630    1.000
    C34      C        0.00538    0.24910    0.34870    1.000
    C35      C        0.03214    0.20080    0.40270    1.000
    C36      C        0.08149    0.22260    0.42750    1.000
    H35      H        0.09930    0.18950    0.46450    1.000
    C37      C        0.10506    0.29210    0.39910    1.000
    C38      C        0.07943    0.33440    0.34250    1.000
    H36      H        0.09560    0.37920    0.32040    1.000
    O3       O        0.95509    0.23590    0.32990    1.000
    C39      C        0.92888    0.29220    0.37310    1.000
    H37      H        0.93600    0.35380    0.36350    1.000
    H38      H        0.94040    0.28070    0.42330    1.000
    C40      C        0.87373    0.27560    0.35700    1.000
    C41      C        0.84609    0.27470    0.41160    1.000
    H39      H        0.86300    0.28060    0.45800    1.000
    N3       N        0.79627    0.26570    0.40270    1.000
    C42      C        0.77330    0.25680    0.33760    1.000
    H40      H        0.73820    0.25030    0.33030    1.000
    C43      C        0.79820    0.25660    0.28020    1.000
    H41      H        0.78050    0.25080    0.23430    1.000
    C44      C        0.84970    0.26480    0.29040    1.000
    H42      H        0.86780    0.26290    0.25170    1.000
    C45      C        0.15810    0.31880    0.43050    1.000
    C46      C        0.19330    0.24300    0.42470    1.000
    H43      H        0.22750    0.26130    0.44130    1.000
    H44      H        0.19080    0.22450    0.37560    1.000
    H45      H        0.18440    0.19450    0.45340    1.000
    C47      C        0.17680    0.39730    0.39190    1.000
    H46      H        0.15400    0.44630    0.39370    1.000
    H47      H        0.17820    0.38170    0.34300    1.000
    H48      H        0.21000    0.41370    0.41470    1.000
    C48      C        0.15860    0.34390    0.50780    1.000
    H49      H        0.14370    0.29700    0.53220    1.000
    H50      H        0.13950    0.39750    0.51060    1.000
    H51      H        0.19300    0.35310    0.52980    1.000
    S2       S        0.00367    0.12185    0.45109    1.000
    C49      C        0.97130    0.05060    0.38770    1.000
    C50      C        0.99685    0.99670    0.34740    1.000
    C51      C        0.96976    0.93670    0.30210    1.000
    C52      C        0.91910    0.92830    0.30120    1.000
    H52      H        0.90130    0.88750    0.27020    1.000
    C53      C        0.89324    0.97820    0.34460    1.000
    C54      C        0.92005    0.04120    0.38570    1.000
    H53      H        0.90300    0.07900    0.41320    1.000
    O4       O        0.04803    0.00090    0.35230    1.000
    C55      C        0.07046    0.93760    0.40170    1.000
    H54      H        0.05940    0.87870    0.38590    1.000
    H55      H        0.05980    0.94810    0.44800    1.000
    C56      C        0.12610    0.94310    0.40820    1.000
    C57      C        0.15373    0.87260    0.43430    1.000
    H56      H        0.13650    0.82070    0.44250    1.000
    N4       N        0.20376    0.87240    0.44910    1.000
    C58      C        0.22732    0.94490    0.43400    1.000
    H57      H        0.26260    0.94660    0.44420    1.000
    C59      C        0.20290    0.01680    0.40450    1.000
    H58      H        0.22110    0.06600    0.39260    1.000
    C60      C        0.15130    0.01680    0.39220    1.000
    H59      H        0.13360    0.06660    0.37320    1.000
    C61      C        0.83790    0.96240    0.34810    1.000
    C62      C        0.83500    0.89070    0.40250    1.000
    H60      H        0.85340    0.90870    0.44760    1.000
    H61      H        0.84950    0.83710    0.38680    1.000
    H62      H        0.80010    0.88040    0.40780    1.000
    C63      C        0.81150    0.92540    0.28320    1.000
    H63      H        0.82550    0.86820    0.27500    1.000
    H64      H        0.81520    0.96400    0.24390    1.000
    H65      H        0.77610    0.91920    0.28750    1.000
    C64      C        0.81210    0.03770    0.37600    1.000
    H66      H        0.82010    0.09110    0.35210    1.000
    H67      H        0.82310    0.04350    0.42640    1.000
    H68      H        0.77610    0.02810    0.36770    1.000
    Br3      Br       0.81612    0.64376    0.07664    1.000
    C65      C        0.46982    0.81350    0.18370    1.000
    C66      C        0.49462    0.74910    0.15130    1.000
    C67      C        0.46786    0.70080    0.09730    1.000
    C68      C        0.41851    0.72260    0.07250    1.000
    H69      H        0.40070    0.68950    0.03550    1.000
    C69      C        0.39494    0.79210    0.10090    1.000
    C70      C        0.42057    0.83440    0.15750    1.000
    H70      H        0.40440    0.87920    0.17960    1.000
    O5       O        0.54491    0.73590    0.17010    1.000
    C71      C        0.57112    0.79220    0.12690    1.000
    H71      H        0.56400    0.85380    0.13650    1.000
    H72      H        0.55960    0.78070    0.07670    1.000
    C72      C        0.62627    0.77560    0.14300    1.000
    C73      C        0.65391    0.77470    0.08840    1.000
    H73      H        0.63700    0.78060    0.04200    1.000
    N5       N        0.70373    0.76570    0.09730    1.000
    C74      C        0.72670    0.75680    0.16240    1.000
    H74      H        0.76180    0.75030    0.16970    1.000
    C75      C        0.70180    0.75660    0.21980    1.000
    H75      H        0.71950    0.75080    0.26570    1.000
    C76      C        0.65030    0.76480    0.20960    1.000
    H76      H        0.63220    0.76290    0.24830    1.000
    C77      C        0.34190    0.81880    0.06950    1.000
    C78      C        0.30670    0.74300    0.07530    1.000
    H77      H        0.27250    0.76130    0.05870    1.000
    H78      H        0.30920    0.72450    0.12440    1.000
    H79      H        0.31560    0.69450    0.04660    1.000
    C79      C        0.32320    0.89730    0.10810    1.000
    H80      H        0.34600    0.94630    0.10630    1.000
    H81      H        0.32180    0.88170    0.15700    1.000
    H82      H        0.29000    0.91370    0.08530    1.000
    C80      C        0.34140    0.84390    0.99220    1.000
    H83      H        0.35630    0.79700    0.96780    1.000
    H84      H        0.36050    0.89750    0.98940    1.000
    H85      H        0.30700    0.85310    0.97020    1.000
    S3       S        0.49633    0.62185    0.04891    1.000
    C81      C        0.52870    0.55060    0.11230    1.000
    C82      C        0.50315    0.49670    0.15260    1.000
    C83      C        0.53024    0.43670    0.19790    1.000
    C84      C        0.58090    0.42830    0.19880    1.000
    H86      H        0.59870    0.38750    0.22980    1.000
    C85      C        0.60676    0.47820    0.15540    1.000
    C86      C        0.57995    0.54120    0.11430    1.000
    H87      H        0.59700    0.57900    0.08680    1.000
    O6       O        0.45197    0.50090    0.14770    1.000
    C87      C        0.42954    0.43760    0.09830    1.000
    H88      H        0.44060    0.37870    0.11410    1.000
    H89      H        0.44020    0.44810    0.05200    1.000
    C88      C        0.37390    0.44310    0.09180    1.000
    C89      C        0.34627    0.37260    0.06570    1.000
    H90      H        0.36350    0.32070    0.05750    1.000
    N6       N        0.29624    0.37240    0.05090    1.000
    C90      C        0.27268    0.44490    0.06600    1.000
    H91      H        0.23740    0.44660    0.05580    1.000
    C91      C        0.29710    0.51680    0.09550    1.000
    H92      H        0.27890    0.56600    0.10740    1.000
    C92      C        0.34870    0.51680    0.10780    1.000
    H93      H        0.36640    0.56660    0.12680    1.000
    C93      C        0.66210    0.46240    0.15190    1.000
    C94      C        0.66500    0.39070    0.09750    1.000
    H94      H        0.64660    0.40870    0.05240    1.000
    H95      H        0.65050    0.33710    0.11320    1.000
    H96      H        0.69990    0.38040    0.09220    1.000
    C95      C        0.68850    0.42540    0.21680    1.000
    H97      H        0.67450    0.36820    0.22500    1.000
    H98      H        0.68480    0.46400    0.25610    1.000
    H99      H        0.72390    0.41920    0.21250    1.000
    C96      C        0.68790    0.53770    0.12400    1.000
    H100     H        0.67990    0.59110    0.14790    1.000
    H101     H        0.67690    0.54350    0.07360    1.000
    H102     H        0.72390    0.52810    0.13230    1.000
    Br4      Br       0.31612    0.14376    0.07664    1.000
    C97      C        0.96982    0.31350    0.18370    1.000
    C98      C        0.99462    0.24910    0.15130    1.000
    C99      C        0.96786    0.20080    0.09730    1.000
    C100     C        0.91851    0.22260    0.07250    1.000
    H103     H        0.90070    0.18950    0.03550    1.000
    C101     C        0.89494    0.29210    0.10090    1.000
    C102     C        0.92057    0.33440    0.15750    1.000
    H104     H        0.90440    0.37920    0.17960    1.000
    O7       O        0.04491    0.23590    0.17010    1.000
    C103     C        0.07112    0.29220    0.12690    1.000
    H105     H        0.06400    0.35380    0.13650    1.000
    H106     H        0.05960    0.28070    0.07670    1.000
    C104     C        0.12627    0.27560    0.14300    1.000
    C105     C        0.15391    0.27470    0.08840    1.000
    H107     H        0.13700    0.28060    0.04200    1.000
    N7       N        0.20373    0.26570    0.09730    1.000
    C106     C        0.22670    0.25680    0.16240    1.000
    H108     H        0.26180    0.25030    0.16970    1.000
    C107     C        0.20180    0.25660    0.21980    1.000
    H109     H        0.21950    0.25080    0.26570    1.000
    C108     C        0.15030    0.26480    0.20960    1.000
    H110     H        0.13220    0.26290    0.24830    1.000
    C109     C        0.84190    0.31880    0.06950    1.000
    C110     C        0.80670    0.24300    0.07530    1.000
    H111     H        0.77250    0.26130    0.05870    1.000
    H112     H        0.80920    0.22450    0.12440    1.000
    H113     H        0.81560    0.19450    0.04660    1.000
    C111     C        0.82320    0.39730    0.10810    1.000
    H114     H        0.84600    0.44630    0.10630    1.000
    H115     H        0.82180    0.38170    0.15700    1.000
    H116     H        0.79000    0.41370    0.08530    1.000
    C112     C        0.84140    0.34390    0.99220    1.000
    H117     H        0.85630    0.29700    0.96780    1.000
    H118     H        0.86050    0.39750    0.98940    1.000
    H119     H        0.80700    0.35310    0.97020    1.000
    S4       S        0.99633    0.12185    0.04891    1.000
    C113     C        0.02870    0.05060    0.11230    1.000
    C114     C        0.00315    0.99670    0.15260    1.000
    C115     C        0.03024    0.93670    0.19790    1.000
    C116     C        0.08090    0.92830    0.19880    1.000
    H120     H        0.09870    0.88750    0.22980    1.000
    C117     C        0.10676    0.97820    0.15540    1.000
    C118     C        0.07995    0.04120    0.11430    1.000
    H121     H        0.09700    0.07900    0.08680    1.000
    O8       O        0.95197    0.00090    0.14770    1.000
    C119     C        0.92954    0.93760    0.09830    1.000
    H122     H        0.94060    0.87870    0.11410    1.000
    H123     H        0.94020    0.94810    0.05200    1.000
    C120     C        0.87390    0.94310    0.09180    1.000
    C121     C        0.84627    0.87260    0.06570    1.000
    H124     H        0.86350    0.82070    0.05750    1.000
    N8       N        0.79624    0.87240    0.05090    1.000
    C122     C        0.77268    0.94490    0.06600    1.000
    H125     H        0.73740    0.94660    0.05580    1.000
    C123     C        0.79710    0.01680    0.09550    1.000
    H126     H        0.77890    0.06600    0.10740    1.000
    C124     C        0.84870    0.01680    0.10780    1.000
    H127     H        0.86640    0.06660    0.12680    1.000
    C125     C        0.16210    0.96240    0.15190    1.000
    C126     C        0.16500    0.89070    0.09750    1.000
    H128     H        0.14660    0.90870    0.05240    1.000
    H129     H        0.15050    0.83710    0.11320    1.000
    H130     H        0.19990    0.88040    0.09220    1.000
    C127     C        0.18850    0.92540    0.21680    1.000
    H131     H        0.17450    0.86820    0.22500    1.000
    H132     H        0.18480    0.96400    0.25610    1.000
    H133     H        0.22390    0.91920    0.21250    1.000
    C128     C        0.18790    0.03770    0.12400    1.000
    H134     H        0.17990    0.09110    0.14790    1.000
    H135     H        0.17690    0.04350    0.07360    1.000
    H136     H        0.22390    0.02810    0.13230    1.000
    Br5      Br       0.81612    0.35624    0.57664    1.000
    C129     C        0.46982    0.18650    0.68370    1.000
    C130     C        0.49462    0.25090    0.65130    1.000
    C131     C        0.46786    0.29920    0.59730    1.000
    C132     C        0.41851    0.27740    0.57250    1.000
    H137     H        0.40070    0.31050    0.53550    1.000
    C133     C        0.39494    0.20790    0.60090    1.000
    C134     C        0.42057    0.16560    0.65750    1.000
    H138     H        0.40440    0.12080    0.67960    1.000
    O9       O        0.54491    0.26410    0.67010    1.000
    C135     C        0.57112    0.20780    0.62690    1.000
    H139     H        0.56400    0.14620    0.63650    1.000
    H140     H        0.55960    0.21930    0.57670    1.000
    C136     C        0.62627    0.22440    0.64300    1.000
    C137     C        0.65391    0.22530    0.58840    1.000
    H141     H        0.63700    0.21940    0.54200    1.000
    N9       N        0.70373    0.23430    0.59730    1.000
    C138     C        0.72670    0.24320    0.66240    1.000
    H142     H        0.76180    0.24970    0.66970    1.000
    C139     C        0.70180    0.24340    0.71980    1.000
    H143     H        0.71950    0.24920    0.76570    1.000
    C140     C        0.65030    0.23520    0.70960    1.000
    H144     H        0.63220    0.23710    0.74830    1.000
    C141     C        0.34190    0.18120    0.56950    1.000
    C142     C        0.30670    0.25700    0.57530    1.000
    H145     H        0.27250    0.23870    0.55870    1.000
    H146     H        0.30920    0.27550    0.62440    1.000
    H147     H        0.31560    0.30550    0.54660    1.000
    C143     C        0.32320    0.10270    0.60810    1.000
    H148     H        0.34600    0.05370    0.60630    1.000
    H149     H        0.32180    0.11830    0.65700    1.000
    H150     H        0.29000    0.08630    0.58530    1.000
    C144     C        0.34140    0.15610    0.49220    1.000
    H151     H        0.35630    0.20300    0.46780    1.000
    H152     H        0.36050    0.10250    0.48940    1.000
    H153     H        0.30700    0.14690    0.47020    1.000
    S5       S        0.49633    0.37815    0.54891    1.000
    C145     C        0.52870    0.44940    0.61230    1.000
    C146     C        0.50315    0.50330    0.65260    1.000
    C147     C        0.53024    0.56330    0.69790    1.000
    C148     C        0.58090    0.57170    0.69880    1.000
    H154     H        0.59870    0.61250    0.72980    1.000
    C149     C        0.60676    0.52180    0.65540    1.000
    C150     C        0.57995    0.45880    0.61430    1.000
    H155     H        0.59700    0.42100    0.58680    1.000
    O10      O        0.45197    0.49910    0.64770    1.000
    C151     C        0.42954    0.56240    0.59830    1.000
    H156     H        0.44060    0.62130    0.61410    1.000
    H157     H        0.44020    0.55190    0.55200    1.000
    C152     C        0.37390    0.55690    0.59180    1.000
    C153     C        0.34627    0.62740    0.56570    1.000
    H158     H        0.36350    0.67930    0.55750    1.000
    N10      N        0.29624    0.62760    0.55090    1.000
    C154     C        0.27268    0.55510    0.56600    1.000
    H159     H        0.23740    0.55340    0.55580    1.000
    C155     C        0.29710    0.48320    0.59550    1.000
    H160     H        0.27890    0.43400    0.60740    1.000
    C156     C        0.34870    0.48320    0.60780    1.000
    H161     H        0.36640    0.43340    0.62680    1.000
    C157     C        0.66210    0.53760    0.65190    1.000
    C158     C        0.66500    0.60930    0.59750    1.000
    H162     H        0.64660    0.59130    0.55240    1.000
    H163     H        0.65050    0.66290    0.61320    1.000
    H164     H        0.69990    0.61960    0.59220    1.000
    C159     C        0.68850    0.57460    0.71680    1.000
    H165     H        0.67450    0.63180    0.72500    1.000
    H166     H        0.68480    0.53600    0.75610    1.000
    H167     H        0.72390    0.58080    0.71250    1.000
    C160     C        0.68790    0.46230    0.62400    1.000
    H168     H        0.67990    0.40890    0.64790    1.000
    H169     H        0.67690    0.45650    0.57360    1.000
    H170     H        0.72390    0.47190    0.63230    1.000
    Br6      Br       0.31612    0.85624    0.57664    1.000
    C161     C        0.96982    0.68650    0.68370    1.000
    C162     C        0.99462    0.75090    0.65130    1.000
    C163     C        0.96786    0.79920    0.59730    1.000
    C164     C        0.91851    0.77740    0.57250    1.000
    H171     H        0.90070    0.81050    0.53550    1.000
    C165     C        0.89494    0.70790    0.60090    1.000
    C166     C        0.92057    0.66560    0.65750    1.000
    H172     H        0.90440    0.62080    0.67960    1.000
    O11      O        0.04491    0.76410    0.67010    1.000
    C167     C        0.07112    0.70780    0.62690    1.000
    H173     H        0.06400    0.64620    0.63650    1.000
    H174     H        0.05960    0.71930    0.57670    1.000
    C168     C        0.12627    0.72440    0.64300    1.000
    C169     C        0.15391    0.72530    0.58840    1.000
    H175     H        0.13700    0.71940    0.54200    1.000
    N11      N        0.20373    0.73430    0.59730    1.000
    C170     C        0.22670    0.74320    0.66240    1.000
    H176     H        0.26180    0.74970    0.66970    1.000
    C171     C        0.20180    0.74340    0.71980    1.000
    H177     H        0.21950    0.74920    0.76570    1.000
    C172     C        0.15030    0.73520    0.70960    1.000
    H178     H        0.13220    0.73710    0.74830    1.000
    C173     C        0.84190    0.68120    0.56950    1.000
    C174     C        0.80670    0.75700    0.57530    1.000
    H179     H        0.77250    0.73870    0.55870    1.000
    H180     H        0.80920    0.77550    0.62440    1.000
    H181     H        0.81560    0.80550    0.54660    1.000
    C175     C        0.82320    0.60270    0.60810    1.000
    H182     H        0.84600    0.55370    0.60630    1.000
    H183     H        0.82180    0.61830    0.65700    1.000
    H184     H        0.79000    0.58630    0.58530    1.000
    C176     C        0.84140    0.65610    0.49220    1.000
    H185     H        0.85630    0.70300    0.46780    1.000
    H186     H        0.86050    0.60250    0.48940    1.000
    H187     H        0.80700    0.64690    0.47020    1.000
    S6       S        0.99633    0.87815    0.54891    1.000
    C177     C        0.02870    0.94940    0.61230    1.000
    C178     C        0.00315    0.00330    0.65260    1.000
    C179     C        0.03024    0.06330    0.69790    1.000
    C180     C        0.08090    0.07170    0.69880    1.000
    H188     H        0.09870    0.11250    0.72980    1.000
    C181     C        0.10676    0.02180    0.65540    1.000
    C182     C        0.07995    0.95880    0.61430    1.000
    H189     H        0.09700    0.92100    0.58680    1.000
    O12      O        0.95197    0.99910    0.64770    1.000
    C183     C        0.92954    0.06240    0.59830    1.000
    H190     H        0.94060    0.12130    0.61410    1.000
    H191     H        0.94020    0.05190    0.55200    1.000
    C184     C        0.87390    0.05690    0.59180    1.000
    C185     C        0.84627    0.12740    0.56570    1.000
    H192     H        0.86350    0.17930    0.55750    1.000
    N12      N        0.79624    0.12760    0.55090    1.000
    C186     C        0.77268    0.05510    0.56600    1.000
    H193     H        0.73740    0.05340    0.55580    1.000
    C187     C        0.79710    0.98320    0.59550    1.000
    H194     H        0.77890    0.93400    0.60740    1.000
    C188     C        0.84870    0.98320    0.60780    1.000
    H195     H        0.86640    0.93340    0.62680    1.000
    C189     C        0.16210    0.03760    0.65190    1.000
    C190     C        0.16500    0.10930    0.59750    1.000
    H196     H        0.14660    0.09130    0.55240    1.000
    H197     H        0.15050    0.16290    0.61320    1.000
    H198     H        0.19990    0.11960    0.59220    1.000
    C191     C        0.18850    0.07460    0.71680    1.000
    H199     H        0.17450    0.13180    0.72500    1.000
    H200     H        0.18480    0.03600    0.75610    1.000
    H201     H        0.22390    0.08080    0.71250    1.000
    C192     C        0.18790    0.96230    0.62400    1.000
    H202     H        0.17990    0.90890    0.64790    1.000
    H203     H        0.17690    0.95650    0.57360    1.000
    H204     H        0.22390    0.97190    0.63230    1.000
    Br7      Br       0.18388    0.35624    0.92336    1.000
    C193     C        0.53018    0.18650    0.81630    1.000
    C194     C        0.50538    0.25090    0.84870    1.000
    C195     C        0.53214    0.29920    0.90270    1.000
    C196     C        0.58149    0.27740    0.92750    1.000
    H205     H        0.59930    0.31050    0.96450    1.000
    C197     C        0.60506    0.20790    0.89910    1.000
    C198     C        0.57943    0.16560    0.84250    1.000
    H206     H        0.59560    0.12080    0.82040    1.000
    O13      O        0.45509    0.26410    0.82990    1.000
    C199     C        0.42888    0.20780    0.87310    1.000
    H207     H        0.43600    0.14620    0.86350    1.000
    H208     H        0.44040    0.21930    0.92330    1.000
    C200     C        0.37373    0.22440    0.85700    1.000
    C201     C        0.34609    0.22530    0.91160    1.000
    H209     H        0.36300    0.21940    0.95800    1.000
    N13      N        0.29627    0.23430    0.90270    1.000
    C202     C        0.27330    0.24320    0.83760    1.000
    H210     H        0.23820    0.24970    0.83030    1.000
    C203     C        0.29820    0.24340    0.78020    1.000
    H211     H        0.28050    0.24920    0.73430    1.000
    C204     C        0.34970    0.23520    0.79040    1.000
    H212     H        0.36780    0.23710    0.75170    1.000
    C205     C        0.65810    0.18120    0.93050    1.000
    C206     C        0.69330    0.25700    0.92470    1.000
    H213     H        0.72750    0.23870    0.94130    1.000
    H214     H        0.69080    0.27550    0.87560    1.000
    H215     H        0.68440    0.30550    0.95340    1.000
    C207     C        0.67680    0.10270    0.89190    1.000
    H216     H        0.65400    0.05370    0.89370    1.000
    H217     H        0.67820    0.11830    0.84300    1.000
    H218     H        0.71000    0.08630    0.91470    1.000
    C208     C        0.65860    0.15610    0.00780    1.000
    H219     H        0.64370    0.20300    0.03220    1.000
    H220     H        0.63950    0.10250    0.01060    1.000
    H221     H        0.69300    0.14690    0.02980    1.000
    S7       S        0.50367    0.37815    0.95109    1.000
    C209     C        0.47130    0.44940    0.88770    1.000
    C210     C        0.49685    0.50330    0.84740    1.000
    C211     C        0.46976    0.56330    0.80210    1.000
    C212     C        0.41910    0.57170    0.80120    1.000
    H222     H        0.40130    0.61250    0.77020    1.000
    C213     C        0.39324    0.52180    0.84460    1.000
    C214     C        0.42005    0.45880    0.88570    1.000
    H223     H        0.40300    0.42100    0.91320    1.000
    O14      O        0.54803    0.49910    0.85230    1.000
    C215     C        0.57046    0.56240    0.90170    1.000
    H224     H        0.55940    0.62130    0.88590    1.000
    H225     H        0.55980    0.55190    0.94800    1.000
    C216     C        0.62610    0.55690    0.90820    1.000
    C217     C        0.65373    0.62740    0.93430    1.000
    H226     H        0.63650    0.67930    0.94250    1.000
    N14      N        0.70376    0.62760    0.94910    1.000
    C218     C        0.72732    0.55510    0.93400    1.000
    H227     H        0.76260    0.55340    0.94420    1.000
    C219     C        0.70290    0.48320    0.90450    1.000
    H228     H        0.72110    0.43400    0.89260    1.000
    C220     C        0.65130    0.48320    0.89220    1.000
    H229     H        0.63360    0.43340    0.87320    1.000
    C221     C        0.33790    0.53760    0.84810    1.000
    C222     C        0.33500    0.60930    0.90250    1.000
    H230     H        0.35340    0.59130    0.94760    1.000
    H231     H        0.34950    0.66290    0.88680    1.000
    H232     H        0.30010    0.61960    0.90780    1.000
    C223     C        0.31150    0.57460    0.78320    1.000
    H233     H        0.32550    0.63180    0.77500    1.000
    H234     H        0.31520    0.53600    0.74390    1.000
    H235     H        0.27610    0.58080    0.78750    1.000
    C224     C        0.31210    0.46230    0.87600    1.000
    H236     H        0.32010    0.40890    0.85210    1.000
    H237     H        0.32310    0.45650    0.92640    1.000
    H238     H        0.27610    0.47190    0.86770    1.000
    Br8      Br       0.68388    0.85624    0.92336    1.000
    C225     C        0.03018    0.68650    0.81630    1.000
    C226     C        0.00538    0.75090    0.84870    1.000
    C227     C        0.03214    0.79920    0.90270    1.000
    C228     C        0.08149    0.77740    0.92750    1.000
    H239     H        0.09930    0.81050    0.96450    1.000
    C229     C        0.10506    0.70790    0.89910    1.000
    C230     C        0.07943    0.66560    0.84250    1.000
    H240     H        0.09560    0.62080    0.82040    1.000
    O15      O        0.95509    0.76410    0.82990    1.000
    C231     C        0.92888    0.70780    0.87310    1.000
    H241     H        0.93600    0.64620    0.86350    1.000
    H242     H        0.94040    0.71930    0.92330    1.000
    C232     C        0.87373    0.72440    0.85700    1.000
    C233     C        0.84609    0.72530    0.91160    1.000
    H243     H        0.86300    0.71940    0.95800    1.000
    N15      N        0.79627    0.73430    0.90270    1.000
    C234     C        0.77330    0.74320    0.83760    1.000
    H244     H        0.73820    0.74970    0.83030    1.000
    C235     C        0.79820    0.74340    0.78020    1.000
    H245     H        0.78050    0.74920    0.73430    1.000
    C236     C        0.84970    0.73520    0.79040    1.000
    H246     H        0.86780    0.73710    0.75170    1.000
    C237     C        0.15810    0.68120    0.93050    1.000
    C238     C        0.19330    0.75700    0.92470    1.000
    H247     H        0.22750    0.73870    0.94130    1.000
    H248     H        0.19080    0.77550    0.87560    1.000
    H249     H        0.18440    0.80550    0.95340    1.000
    C239     C        0.17680    0.60270    0.89190    1.000
    H250     H        0.15400    0.55370    0.89370    1.000
    H251     H        0.17820    0.61830    0.84300    1.000
    H252     H        0.21000    0.58630    0.91470    1.000
    C240     C        0.15860    0.65610    0.00780    1.000
    H253     H        0.14370    0.70300    0.03220    1.000
    H254     H        0.13950    0.60250    0.01060    1.000
    H255     H        0.19300    0.64690    0.02980    1.000
    S8       S        0.00367    0.87815    0.95109    1.000
    C241     C        0.97130    0.94940    0.88770    1.000
    C242     C        0.99685    0.00330    0.84740    1.000
    C243     C        0.96976    0.06330    0.80210    1.000
    C244     C        0.91910    0.07170    0.80120    1.000
    H256     H        0.90130    0.11250    0.77020    1.000
    C245     C        0.89324    0.02180    0.84460    1.000
    C246     C        0.92005    0.95880    0.88570    1.000
    H257     H        0.90300    0.92100    0.91320    1.000
    O16      O        0.04803    0.99910    0.85230    1.000
    C247     C        0.07046    0.06240    0.90170    1.000
    H258     H        0.05940    0.12130    0.88590    1.000
    H259     H        0.05980    0.05190    0.94800    1.000
    C248     C        0.12610    0.05690    0.90820    1.000
    C249     C        0.15373    0.12740    0.93430    1.000
    H260     H        0.13650    0.17930    0.94250    1.000
    N16      N        0.20376    0.12760    0.94910    1.000
    C250     C        0.22732    0.05510    0.93400    1.000
    H261     H        0.26260    0.05340    0.94420    1.000
    C251     C        0.20290    0.98320    0.90450    1.000
    H262     H        0.22110    0.93400    0.89260    1.000
    C252     C        0.15130    0.98320    0.89220    1.000
    H263     H        0.13360    0.93340    0.87320    1.000
    C253     C        0.83790    0.03760    0.84810    1.000
    C254     C        0.83500    0.10930    0.90250    1.000
    H264     H        0.85340    0.09130    0.94760    1.000
    H265     H        0.84950    0.16290    0.88680    1.000
    H266     H        0.80010    0.11960    0.90780    1.000
    C255     C        0.81150    0.07460    0.78320    1.000
    H267     H        0.82550    0.13180    0.77500    1.000
    H268     H        0.81520    0.03600    0.74390    1.000
    H269     H        0.77610    0.08080    0.78750    1.000
    C256     C        0.81210    0.96230    0.87600    1.000
    H270     H        0.82010    0.90890    0.85210    1.000
    H271     H        0.82310    0.95650    0.92640    1.000
    H272     H        0.77610    0.97190    0.86770    1.000
    Cd1      Cd       0.25000    0.75000    0.50000    1.000
    Cd2      Cd       0.75000    0.75000    0.00000    1.000
    Cd3      Cd       0.75000    0.25000    0.50000    1.000
    Cd4      Cd       0.25000    0.25000    0.00000    1.000
    S9       S        0.50000    0.88248    0.25000    1.000
    S10      S        0.50000    0.36429    0.25000    1.000
    S11      S        0.00000    0.38248    0.25000    1.000
    S12      S        0.00000    0.86429    0.25000    1.000
    S13      S        0.50000    0.11752    0.75000    1.000
    S14      S        0.50000    0.63571    0.75000    1.000
    S15      S        0.00000    0.61752    0.75000    1.000
    S16      S        0.00000    0.13571    0.75000    1.000
