# CIF file generated by openbabel 3.1.0, see https://openbabel.org
data_I
_chemical_name_common 'image0'
_cell_length_a 6.8636
_cell_length_b 11.979
_cell_length_c 13.651
_cell_angle_alpha 90
_cell_angle_beta 99.65
_cell_angle_gamma 90
_space_group_name_H-M_alt 'P 1'
_space_group_name_Hall 'P 1'
loop_
    _symmetry_equiv_pos_as_xyz
    x,y,z
loop_
    _atom_site_label
    _atom_site_type_symbol
    _atom_site_fract_x
    _atom_site_fract_y
    _atom_site_fract_z
    _atom_site_occupancy
    La1      La       0.94072    0.83039    0.24216    1.000
    C1       C        0.46460    0.87600    0.10560    1.000
    C2       C        0.31500    0.90040    0.02710    1.000
    H1       H        0.19840    0.93390    0.03810    1.000
    C3       C        0.34340    0.87340    0.93150    1.000
    C4       C        0.52000    0.82350    0.91760    1.000
    H2       H        0.53900    0.80080    0.85480    1.000
    C5       C        0.66710    0.80850    0.99970    1.000
    C6       C        0.87220    0.76310    0.99330    1.000
    C7       C        0.44800    0.89710    0.21280    1.000
    C8       C        0.18580    0.89880    0.84260    1.000
    N1       N        0.64050    0.83430    0.09210    1.000
    O1       O        0.60710    0.90190    0.27390    1.000
    O2       O        0.27890    0.90920    0.23400    1.000
    O3       O        0.98860    0.75240    0.07440    1.000
    O4       O        0.91180    0.74160    0.90970    1.000
    O5       O        0.17070    0.83110    0.77160    1.000
    O6       O        0.08330    0.98480    0.84700    1.000
    La2      La       0.05928    0.33039    0.25784    1.000
    C9       C        0.53540    0.37600    0.39440    1.000
    C10      C        0.68500    0.40040    0.47290    1.000
    H3       H        0.80160    0.43390    0.46190    1.000
    C11      C        0.65660    0.37340    0.56850    1.000
    C12      C        0.48000    0.32350    0.58240    1.000
    H4       H        0.46100    0.30080    0.64520    1.000
    C13      C        0.33290    0.30850    0.50030    1.000
    C14      C        0.12780    0.26310    0.50670    1.000
    C15      C        0.55200    0.39710    0.28720    1.000
    C16      C        0.81420    0.39880    0.65740    1.000
    N2       N        0.35950    0.33430    0.40790    1.000
    O7       O        0.39290    0.40190    0.22610    1.000
    O8       O        0.72110    0.40920    0.26600    1.000
    O9       O        0.01140    0.25240    0.42560    1.000
    O10      O        0.08820    0.24160    0.59030    1.000
    O11      O        0.82930    0.33110    0.72840    1.000
    O12      O        0.91670    0.48480    0.65300    1.000
    La3      La       0.05928    0.16961    0.75784    1.000
    C17      C        0.53540    0.12400    0.89440    1.000
    C18      C        0.68500    0.09960    0.97290    1.000
    H5       H        0.80160    0.06610    0.96190    1.000
    C19      C        0.65660    0.12660    0.06850    1.000
    C20      C        0.48000    0.17650    0.08240    1.000
    H6       H        0.46100    0.19920    0.14520    1.000
    C21      C        0.33290    0.19150    0.00030    1.000
    C22      C        0.12780    0.23690    0.00670    1.000
    C23      C        0.55200    0.10290    0.78720    1.000
    C24      C        0.81420    0.10120    0.15740    1.000
    N3       N        0.35950    0.16570    0.90790    1.000
    O13      O        0.39290    0.09810    0.72610    1.000
    O14      O        0.72110    0.09080    0.76600    1.000
    O15      O        0.01140    0.24760    0.92560    1.000
    O16      O        0.08820    0.25840    0.09030    1.000
    O17      O        0.82930    0.16890    0.22840    1.000
    O18      O        0.91670    0.01520    0.15300    1.000
    La4      La       0.94072    0.66961    0.74216    1.000
    C25      C        0.46460    0.62400    0.60560    1.000
    C26      C        0.31500    0.59960    0.52710    1.000
    H7       H        0.19840    0.56610    0.53810    1.000
    C27      C        0.34340    0.62660    0.43150    1.000
    C28      C        0.52000    0.67650    0.41760    1.000
    H8       H        0.53900    0.69920    0.35480    1.000
    C29      C        0.66710    0.69150    0.49970    1.000
    C30      C        0.87220    0.73690    0.49330    1.000
    C31      C        0.44800    0.60290    0.71280    1.000
    C32      C        0.18580    0.60120    0.34260    1.000
    N4       N        0.64050    0.66570    0.59210    1.000
    O19      O        0.60710    0.59810    0.77390    1.000
    O20      O        0.27890    0.59080    0.73400    1.000
    O21      O        0.98860    0.74760    0.57440    1.000
    O22      O        0.91180    0.75840    0.40970    1.000
    O23      O        0.17070    0.66890    0.27160    1.000
    O24      O        0.08330    0.51520    0.34700    1.000
