# CIF file generated by openbabel 3.1.0, see https://openbabel.org
data_I
_chemical_name_common 'image0'
_cell_length_a 10.1845
_cell_length_b 20.8747
_cell_length_c 10.707
_cell_angle_alpha 90
_cell_angle_beta 101.876
_cell_angle_gamma 90
_space_group_name_H-M_alt 'P 1'
_space_group_name_Hall 'P 1'
loop_
    _symmetry_equiv_pos_as_xyz
    x,y,z
loop_
    _atom_site_label
    _atom_site_type_symbol
    _atom_site_fract_x
    _atom_site_fract_y
    _atom_site_fract_z
    _atom_site_occupancy
    Co1      Co       0.91462    0.44935    0.55978    1.000
    Co2      Co       0.07706    0.38594    0.36418    1.000
    O1       O        0.94709    0.35448    0.61310    1.000
    O2       O        0.10913    0.31866    0.51490    1.000
    O3       O        0.68345    0.16720    0.74830    1.000
    O4       O        0.80539    0.09967    0.87760    1.000
    O5       O        0.29205    0.07902    0.88230    1.000
    O6       O        0.39639    0.15909    0.80500    1.000
    O7       O        0.09379    0.45603    0.49290    1.000
    H1       H        0.16100    0.45380    0.55800    1.000
    N1       N        0.01060    0.48016    0.74540    1.000
    N2       N        0.99880    0.54360    0.77970    1.000
    N3       N        0.13390    0.49484    0.93550    1.000
    C1       C        0.37420    0.49194    0.02900    1.000
    C2       C        0.42690    0.55221    0.02370    1.000
    H2       H        0.37730    0.58810    0.04000    1.000
    C3       C        0.44810    0.43930    0.00540    1.000
    H3       H        0.41340    0.39780    0.00910    1.000
    C4       C        0.23490    0.48340    0.05390    1.000
    H4       H        0.22480    0.43990    0.08470    1.000
    H5       H        0.22070    0.51360    0.12000    1.000
    C5       C        0.09150    0.45251    0.84040    1.000
    H6       H        0.11680    0.40920    0.84230    1.000
    C6       C        0.07440    0.55083    0.89360    1.000
    H7       H        0.08570    0.58950    0.93950    1.000
    C7       C        0.03260    0.25089    0.66110    1.000
    C8       C        0.91650    0.22638    0.69310    1.000
    H8       H        0.83460    0.24820    0.66770    1.000
    C9       C        0.92150    0.17001    0.76230    1.000
    C10      C        0.04270    0.13911    0.80310    1.000
    H9       H        0.04630    0.10170    0.85260    1.000
    C11      C        0.16020    0.16287    0.77180    1.000
    C12      C        0.15330    0.21792    0.69860    1.000
    H10      H        0.23090    0.23320    0.67380    1.000
    C13      C        0.02950    0.31279    0.58960    1.000
    C14      C        0.79640    0.14396    0.79820    1.000
    C15      C        0.29220    0.13113    0.82330    1.000
    Co3      Co       0.58538    0.94935    0.94022    1.000
    Co4      Co       0.42294    0.88594    0.13582    1.000
    O8       O        0.55291    0.85448    0.88690    1.000
    O9       O        0.39087    0.81866    0.98510    1.000
    O10      O        0.81655    0.66720    0.75170    1.000
    O11      O        0.69461    0.59967    0.62240    1.000
    O12      O        0.20795    0.57902    0.61770    1.000
    O13      O        0.10361    0.65909    0.69500    1.000
    O14      O        0.40621    0.95603    0.00710    1.000
    H11      H        0.33900    0.95380    0.94200    1.000
    N4       N        0.48940    0.98016    0.75460    1.000
    N5       N        0.50120    0.04360    0.72030    1.000
    N6       N        0.36610    0.99484    0.56450    1.000
    C16      C        0.12580    0.99194    0.47100    1.000
    C17      C        0.07310    0.05221    0.47630    1.000
    H12      H        0.12270    0.08810    0.46000    1.000
    C18      C        0.05190    0.93930    0.49460    1.000
    H13      H        0.08660    0.89780    0.49090    1.000
    C19      C        0.26510    0.98340    0.44610    1.000
    H14      H        0.27520    0.93990    0.41530    1.000
    H15      H        0.27930    0.01360    0.38000    1.000
    C20      C        0.40850    0.95251    0.65960    1.000
    H16      H        0.38320    0.90920    0.65770    1.000
    C21      C        0.42560    0.05083    0.60640    1.000
    H17      H        0.41430    0.08950    0.56050    1.000
    C22      C        0.46740    0.75089    0.83890    1.000
    C23      C        0.58350    0.72638    0.80690    1.000
    H18      H        0.66540    0.74820    0.83230    1.000
    C24      C        0.57850    0.67001    0.73770    1.000
    C25      C        0.45730    0.63911    0.69690    1.000
    H19      H        0.45370    0.60170    0.64740    1.000
    C26      C        0.33980    0.66287    0.72820    1.000
    C27      C        0.34670    0.71792    0.80140    1.000
    H20      H        0.26910    0.73320    0.82620    1.000
    C28      C        0.47050    0.81279    0.91040    1.000
    C29      C        0.70360    0.64396    0.70180    1.000
    C30      C        0.20780    0.63113    0.67670    1.000
    Co5      Co       0.08538    0.55065    0.44022    1.000
    Co6      Co       0.92294    0.61406    0.63582    1.000
    O15      O        0.05291    0.64552    0.38690    1.000
    O16      O        0.89087    0.68134    0.48510    1.000
    O17      O        0.31655    0.83280    0.25170    1.000
    O18      O        0.19461    0.90033    0.12240    1.000
    O19      O        0.70795    0.92098    0.11770    1.000
    O20      O        0.60361    0.84091    0.19500    1.000
    O21      O        0.90621    0.54397    0.50710    1.000
    H21      H        0.83900    0.54620    0.44200    1.000
    N7       N        0.98940    0.51984    0.25460    1.000
    N8       N        0.00120    0.45640    0.22030    1.000
    N9       N        0.86610    0.50516    0.06450    1.000
    C31      C        0.62580    0.50806    0.97100    1.000
    C32      C        0.57310    0.44779    0.97630    1.000
    H22      H        0.62270    0.41190    0.96000    1.000
    C33      C        0.55190    0.56070    0.99460    1.000
    H23      H        0.58660    0.60220    0.99090    1.000
    C34      C        0.76510    0.51660    0.94610    1.000
    H24      H        0.77520    0.56010    0.91530    1.000
    H25      H        0.77930    0.48640    0.88000    1.000
    C35      C        0.90850    0.54749    0.15960    1.000
    H26      H        0.88320    0.59080    0.15770    1.000
    C36      C        0.92560    0.44917    0.10640    1.000
    H27      H        0.91430    0.41050    0.06050    1.000
    C37      C        0.96740    0.74911    0.33890    1.000
    C38      C        0.08350    0.77362    0.30690    1.000
    H28      H        0.16540    0.75180    0.33230    1.000
    C39      C        0.07850    0.82999    0.23770    1.000
    C40      C        0.95730    0.86089    0.19690    1.000
    H29      H        0.95370    0.89830    0.14740    1.000
    C41      C        0.83980    0.83713    0.22820    1.000
    C42      C        0.84670    0.78208    0.30140    1.000
    H30      H        0.76910    0.76680    0.32620    1.000
    C43      C        0.97050    0.68721    0.41040    1.000
    C44      C        0.20360    0.85604    0.20180    1.000
    C45      C        0.70780    0.86887    0.17670    1.000
    Co7      Co       0.41462    0.05065    0.05978    1.000
    Co8      Co       0.57706    0.11406    0.86418    1.000
    O22      O        0.44709    0.14552    0.11310    1.000
    O23      O        0.60913    0.18134    0.01490    1.000
    O24      O        0.18345    0.33280    0.24830    1.000
    O25      O        0.30539    0.40033    0.37760    1.000
    O26      O        0.79205    0.42098    0.38230    1.000
    O27      O        0.89639    0.34091    0.30500    1.000
    O28      O        0.59379    0.04397    0.99290    1.000
    H31      H        0.66100    0.04620    0.05800    1.000
    N10      N        0.51060    0.01984    0.24540    1.000
    N11      N        0.49880    0.95640    0.27970    1.000
    N12      N        0.63390    0.00516    0.43550    1.000
    C46      C        0.87420    0.00806    0.52900    1.000
    C47      C        0.92690    0.94779    0.52370    1.000
    H32      H        0.87730    0.91190    0.54000    1.000
    C48      C        0.94810    0.06070    0.50540    1.000
    H33      H        0.91340    0.10220    0.50910    1.000
    C49      C        0.73490    0.01660    0.55390    1.000
    H34      H        0.72480    0.06010    0.58470    1.000
    H35      H        0.72070    0.98640    0.62000    1.000
    C50      C        0.59150    0.04749    0.34040    1.000
    H36      H        0.61680    0.09080    0.34230    1.000
    C51      C        0.57440    0.94917    0.39360    1.000
    H37      H        0.58570    0.91050    0.43950    1.000
    C52      C        0.53260    0.24911    0.16110    1.000
    C53      C        0.41650    0.27362    0.19310    1.000
    H38      H        0.33460    0.25180    0.16770    1.000
    C54      C        0.42150    0.32999    0.26230    1.000
    C55      C        0.54270    0.36089    0.30310    1.000
    H39      H        0.54630    0.39830    0.35260    1.000
    C56      C        0.66020    0.33713    0.27180    1.000
    C57      C        0.65330    0.28208    0.19860    1.000
    H40      H        0.73090    0.26680    0.17380    1.000
    C58      C        0.52950    0.18721    0.08960    1.000
    C59      C        0.29640    0.35604    0.29820    1.000
    C60      C        0.79220    0.36887    0.32330    1.000
