# CIF file generated by openbabel 3.1.0, see https://openbabel.org
data_I
_chemical_name_common 'image0'
_cell_length_a 19.003
_cell_length_b 19.003
_cell_length_c 16.916
_cell_angle_alpha 90
_cell_angle_beta 90
_cell_angle_gamma 120
_space_group_name_H-M_alt 'P 1'
_space_group_name_Hall 'P 1'
loop_
    _symmetry_equiv_pos_as_xyz
    x,y,z
loop_
    _atom_site_label
    _atom_site_type_symbol
    _atom_site_fract_x
    _atom_site_fract_y
    _atom_site_fract_z
    _atom_site_occupancy
    N1       N        0.48570    0.22980    0.63380    1.000
    H1       H        0.50710    0.20770    0.66190    1.000
    N2       N        0.48900    0.30020    0.65360    1.000
    N3       N        0.28080    0.20330    0.37570    1.000
    H2       H        0.23570    0.17430    0.35120    1.000
    C1       C        0.37420    0.24430    0.46620    1.000
    C2       C        0.29840    0.18240    0.44620    1.000
    C3       C        0.24170    0.10490    0.48570    1.000
    H3       H        0.18680    0.09120    0.47440    1.000
    H4       H        0.25060    0.11080    0.54180    1.000
    H5       H        0.25100    0.06270    0.46660    1.000
    C4       C        0.40100    0.30100    0.40200    1.000
    C5       C        0.42150    0.25150    0.53830    1.000
    C6       C        0.44570    0.19770    0.56560    1.000
    C7       C        0.44980    0.31440    0.59530    1.000
    C8       C        0.43750    0.12240    0.53130    1.000
    H6       H        0.45100    0.09460    0.57050    1.000
    H7       H        0.47350    0.13590    0.48700    1.000
    H8       H        0.38250    0.08790    0.51410    1.000
    C9       C        0.43760    0.38600    0.59880    1.000
    H9       H        0.45490    0.41180    0.64950    1.000
    H10      H        0.38110    0.36840    0.59130    1.000
    H11      H        0.46900    0.42390    0.55800    1.000
    C10      C        0.47950    0.37800    0.39040    1.000
    H12      H        0.47490    0.42280    0.41040    1.000
    H13      H        0.49220    0.38590    0.33500    1.000
    H14      H        0.52190    0.37490    0.41810    1.000
    N4       N        0.34280    0.27600    0.34740    1.000
    H15      H        0.94540    0.70150    0.70370    1.000
    N5       N        0.77020    0.25590    0.63380    1.000
    H16      H        0.79230    0.29940    0.66190    1.000
    N6       N        0.69980    0.18880    0.65360    1.000
    N7       N        0.79670    0.07750    0.37570    1.000
    H17      H        0.82570    0.06140    0.35120    1.000
    C11      C        0.75570    0.12990    0.46620    1.000
    C12      C        0.81760    0.11600    0.44620    1.000
    C13      C        0.89510    0.13680    0.48570    1.000
    H18      H        0.90880    0.09560    0.47440    1.000
    H19      H        0.88920    0.13980    0.54180    1.000
    H20      H        0.93730    0.18830    0.46660    1.000
    C14      C        0.69900    0.10000    0.40200    1.000
    C15      C        0.74850    0.17000    0.53830    1.000
    C16      C        0.80230    0.24800    0.56560    1.000
    C17      C        0.68560    0.13540    0.59530    1.000
    C18      C        0.87760    0.31510    0.53130    1.000
    H21      H        0.90540    0.35640    0.57050    1.000
    H22      H        0.86410    0.33760    0.48700    1.000
    H23      H        0.91210    0.29460    0.51410    1.000
    C19      C        0.61400    0.05160    0.59880    1.000
    H24      H        0.58820    0.04310    0.64950    1.000
    H25      H        0.63160    0.01270    0.59130    1.000
    H26      H        0.57610    0.04510    0.55800    1.000
    C20      C        0.62200    0.10150    0.39040    1.000
    H27      H        0.57720    0.05210    0.41040    1.000
    H28      H        0.61410    0.10630    0.33500    1.000
    H29      H        0.62510    0.14700    0.41810    1.000
    N8       N        0.72400    0.06680    0.34740    1.000
    H30      H        0.29850    0.24390    0.70370    1.000
    N9       N        0.74410    0.51430    0.63380    1.000
    H31      H        0.70060    0.49290    0.66190    1.000
    N10      N        0.81120    0.51100    0.65360    1.000
    N11      N        0.92250    0.71920    0.37570    1.000
    H32      H        0.93860    0.76430    0.35120    1.000
    C21      C        0.87010    0.62580    0.46620    1.000
    C22      C        0.88400    0.70160    0.44620    1.000
    C23      C        0.86320    0.75830    0.48570    1.000
    H33      H        0.90440    0.81320    0.47440    1.000
    H34      H        0.86020    0.74940    0.54180    1.000
    H35      H        0.81170    0.74900    0.46660    1.000
    C24      C        0.90000    0.59900    0.40200    1.000
    C25      C        0.83000    0.57850    0.53830    1.000
    C26      C        0.75200    0.55430    0.56560    1.000
    C27      C        0.86460    0.55020    0.59530    1.000
    C28      C        0.68490    0.56250    0.53130    1.000
    H36      H        0.64360    0.54900    0.57050    1.000
    H37      H        0.66240    0.52650    0.48700    1.000
    H38      H        0.70540    0.61750    0.51410    1.000
    C29      C        0.94840    0.56240    0.59880    1.000
    H39      H        0.95690    0.54510    0.64950    1.000
    H40      H        0.98730    0.61890    0.59130    1.000
    H41      H        0.95490    0.53100    0.55800    1.000
    C30      C        0.89850    0.52050    0.39040    1.000
    H42      H        0.94790    0.52510    0.41040    1.000
    H43      H        0.89370    0.50780    0.33500    1.000
    H44      H        0.85300    0.47810    0.41810    1.000
    N12      N        0.93320    0.65720    0.34740    1.000
    H45      H        0.75610    0.05460    0.70370    1.000
    N13      N        0.51430    0.77020    0.13380    1.000
    H46      H        0.49290    0.79230    0.16190    1.000
    N14      N        0.51100    0.69980    0.15360    1.000
    N15      N        0.71920    0.79670    0.87570    1.000
    H47      H        0.76430    0.82570    0.85120    1.000
    C31      C        0.62580    0.75570    0.96620    1.000
    C32      C        0.70160    0.81760    0.94620    1.000
    C33      C        0.75830    0.89510    0.98570    1.000
    H48      H        0.81320    0.90880    0.97440    1.000
    H49      H        0.74940    0.88920    0.04180    1.000
    H50      H        0.74900    0.93730    0.96660    1.000
    C34      C        0.59900    0.69900    0.90200    1.000
    C35      C        0.57850    0.74850    0.03830    1.000
    C36      C        0.55430    0.80230    0.06560    1.000
    C37      C        0.55020    0.68560    0.09530    1.000
    C38      C        0.56250    0.87760    0.03130    1.000
    H51      H        0.54900    0.90540    0.07050    1.000
    H52      H        0.52650    0.86410    0.98700    1.000
    H53      H        0.61750    0.91210    0.01410    1.000
    C39      C        0.56240    0.61400    0.09880    1.000
    H54      H        0.54510    0.58820    0.14950    1.000
    H55      H        0.61890    0.63160    0.09130    1.000
    H56      H        0.53100    0.57610    0.05800    1.000
    C40      C        0.52050    0.62200    0.89040    1.000
    H57      H        0.52510    0.57720    0.91040    1.000
    H58      H        0.50780    0.61410    0.83500    1.000
    H59      H        0.47810    0.62510    0.91810    1.000
    N16      N        0.65720    0.72400    0.84740    1.000
    H60      H        0.05460    0.29850    0.20370    1.000
    N17      N        0.22980    0.74410    0.13380    1.000
    H61      H        0.20770    0.70060    0.16190    1.000
    N18      N        0.30020    0.81120    0.15360    1.000
    N19      N        0.20330    0.92250    0.87570    1.000
    H62      H        0.17430    0.93860    0.85120    1.000
    C41      C        0.24430    0.87010    0.96620    1.000
    C42      C        0.18240    0.88400    0.94620    1.000
    C43      C        0.10490    0.86320    0.98570    1.000
    H63      H        0.09120    0.90440    0.97440    1.000
    H64      H        0.11080    0.86020    0.04180    1.000
    H65      H        0.06270    0.81170    0.96660    1.000
    C44      C        0.30100    0.90000    0.90200    1.000
    C45      C        0.25150    0.83000    0.03830    1.000
    C46      C        0.19770    0.75200    0.06560    1.000
    C47      C        0.31440    0.86460    0.09530    1.000
    C48      C        0.12240    0.68490    0.03130    1.000
    H66      H        0.09460    0.64360    0.07050    1.000
    H67      H        0.13590    0.66240    0.98700    1.000
    H68      H        0.08790    0.70540    0.01410    1.000
    C49      C        0.38600    0.94840    0.09880    1.000
    H69      H        0.41180    0.95690    0.14950    1.000
    H70      H        0.36840    0.98730    0.09130    1.000
    H71      H        0.42390    0.95490    0.05800    1.000
    C50      C        0.37800    0.89850    0.89040    1.000
    H72      H        0.42280    0.94790    0.91040    1.000
    H73      H        0.38590    0.89370    0.83500    1.000
    H74      H        0.37490    0.85300    0.91810    1.000
    N20      N        0.27600    0.93320    0.84740    1.000
    H75      H        0.70150    0.75610    0.20370    1.000
    N21      N        0.25590    0.48570    0.13380    1.000
    H76      H        0.29940    0.50710    0.16190    1.000
    N22      N        0.18880    0.48900    0.15360    1.000
    N23      N        0.07750    0.28080    0.87570    1.000
    H77      H        0.06140    0.23570    0.85120    1.000
    C51      C        0.12990    0.37420    0.96620    1.000
    C52      C        0.11600    0.29840    0.94620    1.000
    C53      C        0.13680    0.24170    0.98570    1.000
    H78      H        0.09560    0.18680    0.97440    1.000
    H79      H        0.13980    0.25060    0.04180    1.000
    H80      H        0.18830    0.25100    0.96660    1.000
    C54      C        0.10000    0.40100    0.90200    1.000
    C55      C        0.17000    0.42150    0.03830    1.000
    C56      C        0.24800    0.44570    0.06560    1.000
    C57      C        0.13540    0.44980    0.09530    1.000
    C58      C        0.31510    0.43750    0.03130    1.000
    H81      H        0.35640    0.45100    0.07050    1.000
    H82      H        0.33760    0.47350    0.98700    1.000
    H83      H        0.29460    0.38250    0.01410    1.000
    C59      C        0.05160    0.43760    0.09880    1.000
    H84      H        0.04310    0.45490    0.14950    1.000
    H85      H        0.01270    0.38110    0.09130    1.000
    H86      H        0.04510    0.46900    0.05800    1.000
    C60      C        0.10150    0.47950    0.89040    1.000
    H87      H        0.05210    0.47490    0.91040    1.000
    H88      H        0.10630    0.49220    0.83500    1.000
    H89      H        0.14700    0.52190    0.91810    1.000
    N24      N        0.06680    0.34280    0.84740    1.000
    H90      H        0.24390    0.94540    0.20370    1.000
    N25      N        0.51430    0.77020    0.36620    1.000
    H91      H        0.49290    0.79230    0.33810    1.000
    N26      N        0.51100    0.69980    0.34640    1.000
    N27      N        0.71920    0.79670    0.62430    1.000
    H92      H        0.76430    0.82570    0.64880    1.000
    C61      C        0.62580    0.75570    0.53380    1.000
    C62      C        0.70160    0.81760    0.55380    1.000
    C63      C        0.75830    0.89510    0.51430    1.000
    H93      H        0.81320    0.90880    0.52560    1.000
    H94      H        0.74940    0.88920    0.45820    1.000
    H95      H        0.74900    0.93730    0.53340    1.000
    C64      C        0.59900    0.69900    0.59800    1.000
    C65      C        0.57850    0.74850    0.46170    1.000
    C66      C        0.55430    0.80230    0.43440    1.000
    C67      C        0.55020    0.68560    0.40470    1.000
    C68      C        0.56250    0.87760    0.46870    1.000
    H96      H        0.54900    0.90540    0.42950    1.000
    H97      H        0.52650    0.86410    0.51300    1.000
    H98      H        0.61750    0.91210    0.48590    1.000
    C69      C        0.56240    0.61400    0.40120    1.000
    H99      H        0.54510    0.58820    0.35050    1.000
    H100     H        0.61890    0.63160    0.40870    1.000
    H101     H        0.53100    0.57610    0.44200    1.000
    C70      C        0.52050    0.62200    0.60960    1.000
    H102     H        0.52510    0.57720    0.58960    1.000
    H103     H        0.50780    0.61410    0.66500    1.000
    H104     H        0.47810    0.62510    0.58190    1.000
    N28      N        0.65720    0.72400    0.65260    1.000
    H105     H        0.05460    0.29850    0.29630    1.000
    N29      N        0.22980    0.74410    0.36620    1.000
    H106     H        0.20770    0.70060    0.33810    1.000
    N30      N        0.30020    0.81120    0.34640    1.000
    N31      N        0.20330    0.92250    0.62430    1.000
    H107     H        0.17430    0.93860    0.64880    1.000
    C71      C        0.24430    0.87010    0.53380    1.000
    C72      C        0.18240    0.88400    0.55380    1.000
    C73      C        0.10490    0.86320    0.51430    1.000
    H108     H        0.09120    0.90440    0.52560    1.000
    H109     H        0.11080    0.86020    0.45820    1.000
    H110     H        0.06270    0.81170    0.53340    1.000
    C74      C        0.30100    0.90000    0.59800    1.000
    C75      C        0.25150    0.83000    0.46170    1.000
    C76      C        0.19770    0.75200    0.43440    1.000
    C77      C        0.31440    0.86460    0.40470    1.000
    C78      C        0.12240    0.68490    0.46870    1.000
    H111     H        0.09460    0.64360    0.42950    1.000
    H112     H        0.13590    0.66240    0.51300    1.000
    H113     H        0.08790    0.70540    0.48590    1.000
    C79      C        0.38600    0.94840    0.40120    1.000
    H114     H        0.41180    0.95690    0.35050    1.000
    H115     H        0.36840    0.98730    0.40870    1.000
    H116     H        0.42390    0.95490    0.44200    1.000
    C80      C        0.37800    0.89850    0.60960    1.000
    H117     H        0.42280    0.94790    0.58960    1.000
    H118     H        0.38590    0.89370    0.66500    1.000
    H119     H        0.37490    0.85300    0.58190    1.000
    N32      N        0.27600    0.93320    0.65260    1.000
    H120     H        0.70150    0.75610    0.29630    1.000
    N33      N        0.25590    0.48570    0.36620    1.000
    H121     H        0.29940    0.50710    0.33810    1.000
    N34      N        0.18880    0.48900    0.34640    1.000
    N35      N        0.07750    0.28080    0.62430    1.000
    H122     H        0.06140    0.23570    0.64880    1.000
    C81      C        0.12990    0.37420    0.53380    1.000
    C82      C        0.11600    0.29840    0.55380    1.000
    C83      C        0.13680    0.24170    0.51430    1.000
    H123     H        0.09560    0.18680    0.52560    1.000
    H124     H        0.13980    0.25060    0.45820    1.000
    H125     H        0.18830    0.25100    0.53340    1.000
    C84      C        0.10000    0.40100    0.59800    1.000
    C85      C        0.17000    0.42150    0.46170    1.000
    C86      C        0.24800    0.44570    0.43440    1.000
    C87      C        0.13540    0.44980    0.40470    1.000
    C88      C        0.31510    0.43750    0.46870    1.000
    H126     H        0.35640    0.45100    0.42950    1.000
    H127     H        0.33760    0.47350    0.51300    1.000
    H128     H        0.29460    0.38250    0.48590    1.000
    C89      C        0.05160    0.43760    0.40120    1.000
    H129     H        0.04310    0.45490    0.35050    1.000
    H130     H        0.01270    0.38110    0.40870    1.000
    H131     H        0.04510    0.46900    0.44200    1.000
    C90      C        0.10150    0.47950    0.60960    1.000
    H132     H        0.05210    0.47490    0.58960    1.000
    H133     H        0.10630    0.49220    0.66500    1.000
    H134     H        0.14700    0.52190    0.58190    1.000
    N36      N        0.06680    0.34280    0.65260    1.000
    H135     H        0.24390    0.94540    0.29630    1.000
    N37      N        0.48570    0.22980    0.86620    1.000
    H136     H        0.50710    0.20770    0.83810    1.000
    N38      N        0.48900    0.30020    0.84640    1.000
    N39      N        0.28080    0.20330    0.12430    1.000
    H137     H        0.23570    0.17430    0.14880    1.000
    C91      C        0.37420    0.24430    0.03380    1.000
    C92      C        0.29840    0.18240    0.05380    1.000
    C93      C        0.24170    0.10490    0.01430    1.000
    H138     H        0.18680    0.09120    0.02560    1.000
    H139     H        0.25060    0.11080    0.95820    1.000
    H140     H        0.25100    0.06270    0.03340    1.000
    C94      C        0.40100    0.30100    0.09800    1.000
    C95      C        0.42150    0.25150    0.96170    1.000
    C96      C        0.44570    0.19770    0.93440    1.000
    C97      C        0.44980    0.31440    0.90470    1.000
    C98      C        0.43750    0.12240    0.96870    1.000
    H141     H        0.45100    0.09460    0.92950    1.000
    H142     H        0.47350    0.13590    0.01300    1.000
    H143     H        0.38250    0.08790    0.98590    1.000
    C99      C        0.43760    0.38600    0.90120    1.000
    H144     H        0.45490    0.41180    0.85050    1.000
    H145     H        0.38110    0.36840    0.90870    1.000
    H146     H        0.46900    0.42390    0.94200    1.000
    C100     C        0.47950    0.37800    0.10960    1.000
    H147     H        0.47490    0.42280    0.08960    1.000
    H148     H        0.49220    0.38590    0.16500    1.000
    H149     H        0.52190    0.37490    0.08190    1.000
    N40      N        0.34280    0.27600    0.15260    1.000
    H150     H        0.94540    0.70150    0.79630    1.000
    N41      N        0.77020    0.25590    0.86620    1.000
    H151     H        0.79230    0.29940    0.83810    1.000
    N42      N        0.69980    0.18880    0.84640    1.000
    N43      N        0.79670    0.07750    0.12430    1.000
    H152     H        0.82570    0.06140    0.14880    1.000
    C101     C        0.75570    0.12990    0.03380    1.000
    C102     C        0.81760    0.11600    0.05380    1.000
    C103     C        0.89510    0.13680    0.01430    1.000
    H153     H        0.90880    0.09560    0.02560    1.000
    H154     H        0.88920    0.13980    0.95820    1.000
    H155     H        0.93730    0.18830    0.03340    1.000
    C104     C        0.69900    0.10000    0.09800    1.000
    C105     C        0.74850    0.17000    0.96170    1.000
    C106     C        0.80230    0.24800    0.93440    1.000
    C107     C        0.68560    0.13540    0.90470    1.000
    C108     C        0.87760    0.31510    0.96870    1.000
    H156     H        0.90540    0.35640    0.92950    1.000
    H157     H        0.86410    0.33760    0.01300    1.000
    H158     H        0.91210    0.29460    0.98590    1.000
    C109     C        0.61400    0.05160    0.90120    1.000
    H159     H        0.58820    0.04310    0.85050    1.000
    H160     H        0.63160    0.01270    0.90870    1.000
    H161     H        0.57610    0.04510    0.94200    1.000
    C110     C        0.62200    0.10150    0.10960    1.000
    H162     H        0.57720    0.05210    0.08960    1.000
    H163     H        0.61410    0.10630    0.16500    1.000
    H164     H        0.62510    0.14700    0.08190    1.000
    N44      N        0.72400    0.06680    0.15260    1.000
    H165     H        0.29850    0.24390    0.79630    1.000
    N45      N        0.74410    0.51430    0.86620    1.000
    H166     H        0.70060    0.49290    0.83810    1.000
    N46      N        0.81120    0.51100    0.84640    1.000
    N47      N        0.92250    0.71920    0.12430    1.000
    H167     H        0.93860    0.76430    0.14880    1.000
    C111     C        0.87010    0.62580    0.03380    1.000
    C112     C        0.88400    0.70160    0.05380    1.000
    C113     C        0.86320    0.75830    0.01430    1.000
    H168     H        0.90440    0.81320    0.02560    1.000
    H169     H        0.86020    0.74940    0.95820    1.000
    H170     H        0.81170    0.74900    0.03340    1.000
    C114     C        0.90000    0.59900    0.09800    1.000
    C115     C        0.83000    0.57850    0.96170    1.000
    C116     C        0.75200    0.55430    0.93440    1.000
    C117     C        0.86460    0.55020    0.90470    1.000
    C118     C        0.68490    0.56250    0.96870    1.000
    H171     H        0.64360    0.54900    0.92950    1.000
    H172     H        0.66240    0.52650    0.01300    1.000
    H173     H        0.70540    0.61750    0.98590    1.000
    C119     C        0.94840    0.56240    0.90120    1.000
    H174     H        0.95690    0.54510    0.85050    1.000
    H175     H        0.98730    0.61890    0.90870    1.000
    H176     H        0.95490    0.53100    0.94200    1.000
    C120     C        0.89850    0.52050    0.10960    1.000
    H177     H        0.94790    0.52510    0.08960    1.000
    H178     H        0.89370    0.50780    0.16500    1.000
    H179     H        0.85300    0.47810    0.08190    1.000
    N48      N        0.93320    0.65720    0.15260    1.000
    H180     H        0.75610    0.05460    0.79630    1.000
    Cu1      Cu       0.66932    0.66706    0.75000    1.000
    Cu2      Cu       0.54774    0.36667    0.75000    1.000
    C121     C        0.61830    0.55370    0.75000    1.000
    N49      N        0.59290    0.48230    0.75000    1.000
    N50      N        0.79200    0.70790    0.75000    1.000
    C122     C        0.85280    0.71510    0.75000    1.000
    C123     C        0.93830    0.72640    0.75000    1.000
    H181     H        0.97770    0.78340    0.75000    1.000
    Cu3      Cu       0.33294    0.00226    0.75000    1.000
    Cu4      Cu       0.63333    0.18107    0.75000    1.000
    C124     C        0.44630    0.06460    0.75000    1.000
    N51      N        0.51770    0.11060    0.75000    1.000
    N52      N        0.29210    0.08410    0.75000    1.000
    C125     C        0.28490    0.13770    0.75000    1.000
    C126     C        0.27360    0.21190    0.75000    1.000
    H182     H        0.21660    0.19430    0.75000    1.000
    Cu5      Cu       0.99774    0.33068    0.75000    1.000
    Cu6      Cu       0.81893    0.45226    0.75000    1.000
    C127     C        0.93540    0.38170    0.75000    1.000
    N53      N        0.88940    0.40710    0.75000    1.000
    N54      N        0.91590    0.20800    0.75000    1.000
    C128     C        0.86230    0.14720    0.75000    1.000
    C129     C        0.78810    0.06170    0.75000    1.000
    H183     H        0.80570    0.02230    0.75000    1.000
    Cu7      Cu       0.33068    0.33294    0.25000    1.000
    Cu8      Cu       0.45226    0.63333    0.25000    1.000
    C130     C        0.38170    0.44630    0.25000    1.000
    N55      N        0.40710    0.51770    0.25000    1.000
    N56      N        0.20800    0.29210    0.25000    1.000
    C131     C        0.14720    0.28490    0.25000    1.000
    C132     C        0.06170    0.27360    0.25000    1.000
    H184     H        0.02230    0.21660    0.25000    1.000
    Cu9      Cu       0.66706    0.99774    0.25000    1.000
    Cu10     Cu       0.36667    0.81893    0.25000    1.000
    C133     C        0.55370    0.93540    0.25000    1.000
    N57      N        0.48230    0.88940    0.25000    1.000
    N58      N        0.70790    0.91590    0.25000    1.000
    C134     C        0.71510    0.86230    0.25000    1.000
    C135     C        0.72640    0.78810    0.25000    1.000
    H185     H        0.78340    0.80570    0.25000    1.000
    Cu11     Cu       0.00226    0.66932    0.25000    1.000
    Cu12     Cu       0.18107    0.54774    0.25000    1.000
    C136     C        0.06460    0.61830    0.25000    1.000
    N59      N        0.11060    0.59290    0.25000    1.000
    N60      N        0.08410    0.79200    0.25000    1.000
    C137     C        0.13770    0.85280    0.25000    1.000
    C138     C        0.21190    0.93830    0.25000    1.000
    H186     H        0.19430    0.97770    0.25000    1.000
    Br1      Br       0.66667    0.33333    0.75000    1.000
    Br2      Br       0.33333    0.66667    0.25000    1.000
