# CIF file generated by openbabel 3.1.0, see https://openbabel.org
data_I
_chemical_name_common 'MOCJAQ_clean'
_cell_length_a 6.4628
_cell_length_b 6.8519
_cell_length_c 7.6936
_cell_angle_alpha 111.646
_cell_angle_beta 95.779
_cell_angle_gamma 91.028
_space_group_name_H-M_alt 'P 1'
_space_group_name_Hall 'P 1'
loop_
    _symmetry_equiv_pos_as_xyz
    x,y,z
loop_
    _atom_site_label
    _atom_site_type_symbol
    _atom_site_fract_x
    _atom_site_fract_y
    _atom_site_fract_z
    _atom_site_occupancy
    Ho1      Ho       0.87615    0.78055    0.06815    1.000
    Ho2      Ho       0.12385    0.21945    0.93185    1.000
    P1       P        0.32992    0.74765    0.97945    1.000
    P2       P        0.67008    0.25235    0.02055    1.000
    H1       H        0.36220    0.72040    0.79780    1.000
    H2       H        0.63780    0.27960    0.20220    1.000
    C1       C        0.05770    0.90360    0.50050    1.000
    C2       C        0.94230    0.09640    0.49950    1.000
    O1       O        0.19890    0.94180    0.03530    1.000
    O2       O        0.53260    0.77780    0.10550    1.000
    O3       O        0.18200    0.57010    0.97690    1.000
    O4       O        0.05080    0.75360    0.34550    1.000
    O5       O        0.85160    0.08560    0.34490    1.000
    O6       O        0.80110    0.05820    0.96470    1.000
    O7       O        0.46740    0.22220    0.89450    1.000
    O8       O        0.81800    0.42990    0.02310    1.000
    O9       O        0.94920    0.24640    0.65450    1.000
    O10      O        0.14840    0.91440    0.65510    1.000
