# CIF file generated by openbabel 3.1.0, see https://openbabel.org
data_I
_chemical_name_common 'PIZNOB_clean_h'
_cell_length_a 8.714
_cell_length_b 10.275
_cell_length_c 9.325
_cell_angle_alpha 85.16
_cell_angle_beta 63.81
_cell_angle_gamma 72.37
_space_group_name_H-M_alt 'P 1'
_space_group_name_Hall 'P 1'
loop_
    _symmetry_equiv_pos_as_xyz
    x,y,z
loop_
    _atom_site_label
    _atom_site_type_symbol
    _atom_site_fract_x
    _atom_site_fract_y
    _atom_site_fract_z
    _atom_site_occupancy
    Eu1      Eu       0.75630    0.98090    0.00000    1.000
    Eu2      Eu       0.24370    0.01910    0.00000    1.000
    C1       C        0.43870    0.92020    0.27210    1.000
    C2       C        0.28160    0.91180    0.42250    1.000
    C3       C        0.28120    0.91600    0.56450    1.000
    C4       C        0.11810    0.92330    0.71790    1.000
    C5       C        0.87580    0.68830    0.98410    1.000
    C6       C        0.93850    0.53390    0.97700    1.000
    C7       C        0.56130    0.07980    0.72790    1.000
    C8       C        0.71840    0.08820    0.57750    1.000
    C9       C        0.71880    0.08400    0.43550    1.000
    C10      C        0.88190    0.07670    0.28210    1.000
    C11      C        0.12420    0.31170    0.01590    1.000
    C12      C        0.06150    0.46610    0.02300    1.000
    O1       O        0.41700    0.95400    0.14730    1.000
    O2       O        0.59000    0.90000    0.27000    1.000
    O3       O        0.11780    0.95760    0.84530    1.000
    O4       O        0.98320    0.90160    0.71990    1.000
    O5       O        0.94770    0.75600    0.02700    1.000
    O6       O        0.75010    0.74670    0.94440    1.000
    O7       O        0.58300    0.04600    0.85270    1.000
    O8       O        0.41000    0.10000    0.73000    1.000
    O9       O        0.88220    0.04240    0.15470    1.000
    O10      O        0.01680    0.09840    0.28010    1.000
    O11      O        0.05230    0.24400    0.97300    1.000
    O12      O        0.24990    0.25330    0.05560    1.000
    H1       H        0.15728    0.90146    0.41775    1.000
    H2       H        0.40865    0.91407    0.57256    1.000
    H3       H        0.87863    0.47266    0.93059    1.000
    H4       H        0.84272    0.09854    0.58225    1.000
    H5       H        0.59135    0.08593    0.42744    1.000
    H6       H        0.12449    0.52379    0.07011    1.000
