# CIF file generated by openbabel 3.1.0, see https://openbabel.org
data_I
_chemical_name_common 'AFOYOK_clean'
_cell_length_a 7.7119
_cell_length_b 13.4745
_cell_length_c 25.1892
_cell_angle_alpha 90
_cell_angle_beta 90
_cell_angle_gamma 106.629
_space_group_name_H-M_alt 'P 1'
_space_group_name_Hall 'P 1'
loop_
    _symmetry_equiv_pos_as_xyz
    x,y,z
loop_
    _atom_site_label
    _atom_site_type_symbol
    _atom_site_fract_x
    _atom_site_fract_y
    _atom_site_fract_z
    _atom_site_occupancy
    Cu1      Cu       0.50000    0.50000    0.50000    1.000
    Cu2      Cu       0.50000    0.50000    0.00000    1.000
    Cu3      Cu       0.00000    0.50000    0.00000    1.000
    Cu4      Cu       0.00000    0.50000    0.50000    1.000
    H1       H        0.03380    0.69280    0.70340    1.000
    H2       H        0.49460    0.58160    0.70380    1.000
    H3       H        0.35490    0.09060    0.44440    1.000
    H4       H        0.96620    0.30720    0.20340    1.000
    H5       H        0.50540    0.41840    0.20380    1.000
    H6       H        0.64510    0.90940    0.94440    1.000
    H7       H        0.34100    0.30720    0.79660    1.000
    H8       H        0.91300    0.41840    0.79620    1.000
    H9       H        0.26430    0.90940    0.05560    1.000
    H10      H        0.65900    0.69280    0.29660    1.000
    H11      H        0.08700    0.58160    0.29620    1.000
    H12      H        0.73570    0.09060    0.55560    1.000
    H13      H        0.96620    0.30720    0.29660    1.000
    H14      H        0.50540    0.41840    0.29620    1.000
    H15      H        0.64510    0.90940    0.55560    1.000
    H16      H        0.03380    0.69280    0.79660    1.000
    H17      H        0.49460    0.58160    0.79620    1.000
    H18      H        0.35490    0.09060    0.05560    1.000
    H19      H        0.65900    0.69280    0.20340    1.000
    H20      H        0.08700    0.58160    0.20380    1.000
    H21      H        0.73570    0.09060    0.94440    1.000
    H22      H        0.34100    0.30720    0.70340    1.000
    H23      H        0.91300    0.41840    0.70380    1.000
    H24      H        0.26430    0.90940    0.44440    1.000
    C1       C        0.61646    0.59032    0.60735    1.000
    C2       C        0.76477    0.61774    0.63785    1.000
    C3       C        0.90749    0.61078    0.60830    1.000
    C4       C        0.76569    0.63198    0.69516    1.000
    C5       C        0.92304    0.66768    0.72218    1.000
    C6       C        0.60596    0.60232    0.72257    1.000
    C7       C        0.49750    0.27960    0.49999    1.000
    C8       C        0.41442    0.05364    0.46710    1.000
    C9       C        0.38354    0.40968    0.10735    1.000
    C10      C        0.23523    0.38226    0.13785    1.000
    C11      C        0.09251    0.38922    0.10830    1.000
    C12      C        0.23431    0.36802    0.19516    1.000
    C13      C        0.07696    0.33232    0.22218    1.000
    C14      C        0.39404    0.39768    0.22257    1.000
    C15      C        0.50250    0.72040    0.99999    1.000
    C16      C        0.58558    0.94636    0.96710    1.000
    C17      C        0.02614    0.40968    0.89265    1.000
    C18      C        0.14703    0.38226    0.86215    1.000
    C19      C        0.29671    0.38922    0.89170    1.000
    C20      C        0.13371    0.36802    0.80484    1.000
    C21      C        0.25536    0.33232    0.77782    1.000
    C22      C        0.00364    0.39768    0.77743    1.000
    C23      C        0.21790    0.72040    0.00001    1.000
    C24      C        0.36078    0.94636    0.03290    1.000
    C25      C        0.97386    0.59032    0.39265    1.000
    C26      C        0.85297    0.61774    0.36215    1.000
    C27      C        0.70329    0.61078    0.39170    1.000
    C28      C        0.86629    0.63198    0.30484    1.000
    C29      C        0.74464    0.66768    0.27782    1.000
    C30      C        0.99636    0.60232    0.27743    1.000
    C31      C        0.78210    0.27960    0.50001    1.000
    C32      C        0.63922    0.05364    0.53290    1.000
    C33      C        0.38354    0.40968    0.39265    1.000
    C34      C        0.23523    0.38226    0.36215    1.000
    C35      C        0.09251    0.38922    0.39170    1.000
    C36      C        0.23431    0.36802    0.30484    1.000
    C37      C        0.07696    0.33232    0.27782    1.000
    C38      C        0.39404    0.39768    0.27743    1.000
    C39      C        0.50250    0.72040    0.50001    1.000
    C40      C        0.58558    0.94636    0.53290    1.000
    C41      C        0.61646    0.59032    0.89265    1.000
    C42      C        0.76477    0.61774    0.86215    1.000
    C43      C        0.90749    0.61078    0.89170    1.000
    C44      C        0.76569    0.63198    0.80484    1.000
    C45      C        0.92304    0.66768    0.77782    1.000
    C46      C        0.60596    0.60232    0.77743    1.000
    C47      C        0.49750    0.27960    0.00001    1.000
    C48      C        0.41442    0.05364    0.03290    1.000
    C49      C        0.97386    0.59032    0.10735    1.000
    C50      C        0.85297    0.61774    0.13785    1.000
    C51      C        0.70329    0.61078    0.10830    1.000
    C52      C        0.86629    0.63198    0.19516    1.000
    C53      C        0.74464    0.66768    0.22218    1.000
    C54      C        0.99636    0.60232    0.22257    1.000
    C55      C        0.78210    0.27960    0.99999    1.000
    C56      C        0.63922    0.05364    0.96710    1.000
    C57      C        0.02614    0.40968    0.60735    1.000
    C58      C        0.14703    0.38226    0.63785    1.000
    C59      C        0.29671    0.38922    0.60830    1.000
    C60      C        0.13371    0.36802    0.69516    1.000
    C61      C        0.25536    0.33232    0.72218    1.000
    C62      C        0.00364    0.39768    0.72257    1.000
    C63      C        0.21790    0.72040    0.49999    1.000
    C64      C        0.36078    0.94636    0.46710    1.000
    C65      C        0.60916    0.21832    0.50000    1.000
    C66      C        0.55292    0.10584    0.50000    1.000
    C67      C        0.39084    0.78168    0.00000    1.000
    C68      C        0.44708    0.89416    0.00000    1.000
    C69      C        0.39084    0.78168    0.50000    1.000
    C70      C        0.44708    0.89416    0.50000    1.000
    C71      C        0.60916    0.21832    0.00000    1.000
    C72      C        0.55292    0.10584    0.00000    1.000
    N1       N        0.66849    0.56678    0.56019    1.000
    N2       N        0.84816    0.57952    0.56031    1.000
    N3       N        0.60020    0.37620    0.49998    1.000
    N4       N        0.33151    0.43322    0.06019    1.000
    N5       N        0.15184    0.42048    0.06031    1.000
    N6       N        0.39980    0.62380    0.99998    1.000
    N7       N        0.10171    0.43322    0.93981    1.000
    N8       N        0.26864    0.42048    0.93969    1.000
    N9       N        0.22400    0.62380    0.00002    1.000
    N10      N        0.89829    0.56678    0.43981    1.000
    N11      N        0.73136    0.57952    0.43969    1.000
    N12      N        0.77600    0.37620    0.50002    1.000
    N13      N        0.33151    0.43322    0.43981    1.000
    N14      N        0.15184    0.42048    0.43969    1.000
    N15      N        0.39980    0.62380    0.50002    1.000
    N16      N        0.66849    0.56678    0.93981    1.000
    N17      N        0.84816    0.57952    0.93969    1.000
    N18      N        0.60020    0.37620    0.00002    1.000
    N19      N        0.89829    0.56678    0.06019    1.000
    N20      N        0.73136    0.57952    0.06031    1.000
    N21      N        0.77600    0.37620    0.99998    1.000
    N22      N        0.10171    0.43322    0.56019    1.000
    N23      N        0.26864    0.42048    0.56031    1.000
    N24      N        0.22400    0.62380    0.49998    1.000
