# CIF file generated by openbabel 3.1.0, see https://openbabel.org
data_I
_chemical_name_common 'NIKDAM_clean'
_cell_length_a 8.509
_cell_length_b 17.1579
_cell_length_c 17.1579
_cell_angle_alpha 118.708
_cell_angle_beta 97.4945
_cell_angle_gamma 82.5055
_space_group_name_H-M_alt 'P 1'
_space_group_name_Hall 'P 1'
loop_
    _symmetry_equiv_pos_as_xyz
    x,y,z
loop_
    _atom_site_label
    _atom_site_type_symbol
    _atom_site_fract_x
    _atom_site_fract_y
    _atom_site_fract_z
    _atom_site_occupancy
    Ce1      Ce       0.25000    0.99093    0.99093    1.000
    Ce2      Ce       0.75000    0.00907    0.00907    1.000
    H1       H        0.86970    0.10350    0.64950    1.000
    H2       H        0.95520    0.80390    0.25010    1.000
    H3       H        0.84300    0.87490    0.25150    1.000
    H4       H        0.81360    0.79530    0.32150    1.000
    H5       H        0.78820    0.89700    0.39260    1.000
    H6       H        0.02510    0.80830    0.51150    1.000
    H7       H        0.83490    0.78740    0.46220    1.000
    H8       H        0.79320    0.94620    0.53980    1.000
    H9       H        0.82600    0.91520    0.59780    1.000
    H10      H        0.07390    0.95820    0.63680    1.000
    H11      H        0.06490    0.99310    0.56590    1.000
    H12      H        0.17120    0.86630    0.20770    1.000
    H13      H        0.23780    0.97060    0.28340    1.000
    H14      H        0.92540    0.94860    0.18340    1.000
    H15      H        0.98830    0.03990    0.25230    1.000
    H16      H        0.11550    0.71960    0.29940    1.000
    H17      H        0.04630    0.69570    0.36230    1.000
    H18      H        0.21140    0.77710    0.47890    1.000
    H19      H        0.33110    0.69240    0.38400    1.000
    H20      H        0.63030    0.64950    0.10350    1.000
    H21      H        0.54480    0.25010    0.80390    1.000
    H22      H        0.65700    0.25150    0.87490    1.000
    H23      H        0.68640    0.32150    0.79530    1.000
    H24      H        0.71180    0.39260    0.89700    1.000
    H25      H        0.47490    0.51150    0.80830    1.000
    H26      H        0.66510    0.46220    0.78740    1.000
    H27      H        0.70680    0.53980    0.94620    1.000
    H28      H        0.67400    0.59780    0.91520    1.000
    H29      H        0.42610    0.63680    0.95820    1.000
    H30      H        0.43510    0.56590    0.99310    1.000
    H31      H        0.32880    0.20770    0.86630    1.000
    H32      H        0.26220    0.28340    0.97060    1.000
    H33      H        0.57460    0.18340    0.94860    1.000
    H34      H        0.51170    0.25230    0.03990    1.000
    H35      H        0.38450    0.29940    0.71960    1.000
    H36      H        0.45370    0.36230    0.69570    1.000
    H37      H        0.28860    0.47890    0.77710    1.000
    H38      H        0.16890    0.38400    0.69240    1.000
    H39      H        0.13030    0.89650    0.35050    1.000
    H40      H        0.04480    0.19610    0.74990    1.000
    H41      H        0.15700    0.12510    0.74850    1.000
    H42      H        0.18640    0.20470    0.67850    1.000
    H43      H        0.21180    0.10300    0.60740    1.000
    H44      H        0.97490    0.19170    0.48850    1.000
    H45      H        0.16510    0.21260    0.53780    1.000
    H46      H        0.20680    0.05380    0.46020    1.000
    H47      H        0.17400    0.08480    0.40220    1.000
    H48      H        0.92610    0.04180    0.36320    1.000
    H49      H        0.93510    0.00690    0.43410    1.000
    H50      H        0.82880    0.13370    0.79230    1.000
    H51      H        0.76220    0.02940    0.71660    1.000
    H52      H        0.07460    0.05140    0.81660    1.000
    H53      H        0.01170    0.96010    0.74770    1.000
    H54      H        0.88450    0.28040    0.70060    1.000
    H55      H        0.95370    0.30430    0.63770    1.000
    H56      H        0.78860    0.22290    0.52110    1.000
    H57      H        0.66890    0.30760    0.61600    1.000
    H58      H        0.36970    0.35050    0.89650    1.000
    H59      H        0.45520    0.74990    0.19610    1.000
    H60      H        0.34300    0.74850    0.12510    1.000
    H61      H        0.31360    0.67850    0.20470    1.000
    H62      H        0.28820    0.60740    0.10300    1.000
    H63      H        0.52510    0.48850    0.19170    1.000
    H64      H        0.33490    0.53780    0.21260    1.000
    H65      H        0.29320    0.46020    0.05380    1.000
    H66      H        0.32600    0.40220    0.08480    1.000
    H67      H        0.57390    0.36320    0.04180    1.000
    H68      H        0.56490    0.43410    0.00690    1.000
    H69      H        0.67120    0.79230    0.13370    1.000
    H70      H        0.73780    0.71660    0.02940    1.000
    H71      H        0.42540    0.81660    0.05140    1.000
    H72      H        0.48830    0.74770    0.96010    1.000
    H73      H        0.61550    0.70060    0.28040    1.000
    H74      H        0.54630    0.63770    0.30430    1.000
    H75      H        0.71140    0.52110    0.22290    1.000
    H76      H        0.83110    0.61600    0.30760    1.000
    C1       C        0.07200    0.13700    0.71500    1.000
    C2       C        0.12800    0.15650    0.64610    1.000
    C3       C        0.06800    0.16940    0.51140    1.000
    C4       C        0.13000    0.07890    0.44310    1.000
    C5       C        0.99600    0.01790    0.39490    1.000
    C6       C        0.86600    0.06790    0.74650    1.000
    C7       C        0.97600    0.02660    0.79540    1.000
    C8       C        0.89610    0.02800    0.86860    1.000
    C9       C        0.10500    0.75180    0.36740    1.000
    C10      C        0.26800    0.75740    0.41840    1.000
    C11      C        0.36600    0.82700    0.42360    1.000
    C12      C        0.42800    0.71500    0.13700    1.000
    C13      C        0.37200    0.64610    0.15650    1.000
    C14      C        0.43200    0.51140    0.16940    1.000
    C15      C        0.37000    0.44310    0.07890    1.000
    C16      C        0.50400    0.39490    0.01790    1.000
    C17      C        0.63400    0.74650    0.06790    1.000
    C18      C        0.52400    0.79540    0.02660    1.000
    C19      C        0.60390    0.86860    0.02800    1.000
    C20      C        0.39500    0.36740    0.75180    1.000
    C21      C        0.23200    0.41840    0.75740    1.000
    C22      C        0.13400    0.42360    0.82700    1.000
    C23      C        0.92800    0.86300    0.28500    1.000
    C24      C        0.87200    0.84350    0.35390    1.000
    C25      C        0.93200    0.83060    0.48860    1.000
    C26      C        0.87000    0.92110    0.55690    1.000
    C27      C        0.00400    0.98210    0.60510    1.000
    C28      C        0.13400    0.93210    0.25350    1.000
    C29      C        0.02400    0.97340    0.20460    1.000
    C30      C        0.10390    0.97200    0.13140    1.000
    C31      C        0.89500    0.24820    0.63260    1.000
    C32      C        0.73200    0.24260    0.58160    1.000
    C33      C        0.63400    0.17300    0.57640    1.000
    C34      C        0.57200    0.28500    0.86300    1.000
    C35      C        0.62800    0.35390    0.84350    1.000
    C36      C        0.56800    0.48860    0.83060    1.000
    C37      C        0.63000    0.55690    0.92110    1.000
    C38      C        0.49600    0.60510    0.98210    1.000
    C39      C        0.36600    0.25350    0.93210    1.000
    C40      C        0.47600    0.20460    0.97340    1.000
    C41      C        0.39610    0.13140    0.97200    1.000
    C42      C        0.60500    0.63260    0.24820    1.000
    C43      C        0.76800    0.58160    0.24260    1.000
    C44      C        0.86600    0.57640    0.17300    1.000
    N1       N        0.94590    0.07150    0.67470    1.000
    N2       N        0.00100    0.16760    0.58660    1.000
    N3       N        0.55410    0.67470    0.07150    1.000
    N4       N        0.49900    0.58660    0.16760    1.000
    N5       N        0.05410    0.92850    0.32530    1.000
    N6       N        0.99900    0.83240    0.41340    1.000
    N7       N        0.44590    0.32530    0.92850    1.000
    N8       N        0.50100    0.41340    0.83240    1.000
    O1       O        0.98510    0.00940    0.92540    1.000
    O2       O        0.24980    0.95790    0.12510    1.000
    O3       O        0.32990    0.86020    0.37200    1.000
    O4       O        0.48600    0.84630    0.47870    1.000
    O5       O        0.51490    0.92540    0.00940    1.000
    O6       O        0.25020    0.12510    0.95790    1.000
    O7       O        0.17010    0.37200    0.86020    1.000
    O8       O        0.01400    0.47870    0.84630    1.000
    O9       O        0.01490    0.99060    0.07460    1.000
    O10      O        0.75020    0.04210    0.87490    1.000
    O11      O        0.67010    0.13980    0.62800    1.000
    O12      O        0.51400    0.15370    0.52130    1.000
    O13      O        0.48510    0.07460    0.99060    1.000
    O14      O        0.74980    0.87490    0.04210    1.000
    O15      O        0.82990    0.62800    0.13980    1.000
    O16      O        0.98600    0.52130    0.15370    1.000
