# CIF file generated by openbabel 3.1.0, see https://openbabel.org
data_I
_chemical_name_common 'image0'
_cell_length_a 12.757
_cell_length_b 12.757
_cell_length_c 12.757
_cell_angle_alpha 90
_cell_angle_beta 90
_cell_angle_gamma 90
_space_group_name_H-M_alt 'P 1'
_space_group_name_Hall 'P 1'
loop_
    _symmetry_equiv_pos_as_xyz
    x,y,z
loop_
    _atom_site_label
    _atom_site_type_symbol
    _atom_site_fract_x
    _atom_site_fract_y
    _atom_site_fract_z
    _atom_site_occupancy
    Cd1      Cd       0.12500    0.12500    0.12500    1.000
    Cd2      Cd       0.12500    0.62500    0.62500    1.000
    Cd3      Cd       0.62500    0.12500    0.62500    1.000
    Cd4      Cd       0.62500    0.62500    0.12500    1.000
    Cd5      Cd       0.87500    0.37500    0.37500    1.000
    Cd6      Cd       0.87500    0.87500    0.87500    1.000
    Cd7      Cd       0.37500    0.37500    0.87500    1.000
    Cd8      Cd       0.37500    0.87500    0.37500    1.000
    C1       C        0.02570    0.02570    0.02570    1.000
    C2       C        0.02570    0.52570    0.52570    1.000
    C3       C        0.52570    0.02570    0.52570    1.000
    C4       C        0.52570    0.52570    0.02570    1.000
    C5       C        0.72430    0.22430    0.52570    1.000
    C6       C        0.72430    0.72430    0.02570    1.000
    C7       C        0.22430    0.52570    0.72430    1.000
    C8       C        0.22430    0.02570    0.22430    1.000
    C9       C        0.72430    0.02570    0.72430    1.000
    C10      C        0.52570    0.72430    0.22430    1.000
    C11      C        0.02570    0.72430    0.72430    1.000
    C12      C        0.77570    0.27570    0.47430    1.000
    C13      C        0.77570    0.77570    0.97430    1.000
    C14      C        0.97430    0.97430    0.97430    1.000
    C15      C        0.97430    0.47430    0.47430    1.000
    C16      C        0.47430    0.97430    0.47430    1.000
    C17      C        0.47430    0.47430    0.97430    1.000
    C18      C        0.27570    0.47430    0.77570    1.000
    C19      C        0.27570    0.97430    0.27570    1.000
    C20      C        0.77570    0.97430    0.77570    1.000
    C21      C        0.47430    0.77570    0.27570    1.000
    C22      C        0.97430    0.77570    0.77570    1.000
    C23      C        0.27570    0.77570    0.47430    1.000
    C24      C        0.27570    0.27570    0.97430    1.000
    C25      C        0.77570    0.47430    0.27570    1.000
    C26      C        0.47430    0.27570    0.77570    1.000
    C27      C        0.97430    0.27570    0.27570    1.000
    C28      C        0.22430    0.72430    0.52570    1.000
    C29      C        0.22430    0.22430    0.02570    1.000
    C30      C        0.72430    0.52570    0.22430    1.000
    C31      C        0.52570    0.22430    0.72430    1.000
    C32      C        0.02570    0.22430    0.22430    1.000
