# CIF file generated by openbabel 3.1.0, see https://openbabel.org
data_I
_chemical_name_common 'image0'
_cell_length_a 5.7843
_cell_length_b 30.2512
_cell_length_c 7.547
_cell_angle_alpha 90
_cell_angle_beta 112.53
_cell_angle_gamma 90
_space_group_name_H-M_alt 'P 1'
_space_group_name_Hall 'P 1'
loop_
    _symmetry_equiv_pos_as_xyz
    x,y,z
loop_
    _atom_site_label
    _atom_site_type_symbol
    _atom_site_fract_x
    _atom_site_fract_y
    _atom_site_fract_z
    _atom_site_occupancy
    Cu1      Cu       0.07880    0.45998    0.92319    1.000
    Cu2      Cu       0.67576    0.28710    0.98615    1.000
    S1       S        0.72040    0.51360    0.75520    1.000
    S2       S        0.51130    0.24266    0.15730    1.000
    S3       S        0.50160    0.35684    0.96570    1.000
    N1       N        0.31190    0.47170    0.79630    1.000
    N2       N        0.03260    0.27800    0.06790    1.000
    N3       N        0.87570    0.40870    0.92230    1.000
    C1       C        0.47750    0.48850    0.77910    1.000
    C2       C        0.23150    0.26440    0.10550    1.000
    C3       C        0.72500    0.38770    0.93980    1.000
    Cu3      Cu       0.92120    0.95998    0.57681    1.000
    Cu4      Cu       0.32424    0.78710    0.51385    1.000
    S4       S        0.27960    0.01360    0.74480    1.000
    S5       S        0.48870    0.74266    0.34270    1.000
    S6       S        0.49840    0.85684    0.53430    1.000
    N4       N        0.68810    0.97170    0.70370    1.000
    N5       N        0.96740    0.77800    0.43210    1.000
    N6       N        0.12430    0.90870    0.57770    1.000
    C4       C        0.52250    0.98850    0.72090    1.000
    C5       C        0.76850    0.76440    0.39450    1.000
    C6       C        0.27500    0.88770    0.56020    1.000
    Cu5      Cu       0.92120    0.54002    0.07681    1.000
    Cu6      Cu       0.32424    0.71290    0.01385    1.000
    S7       S        0.27960    0.48640    0.24480    1.000
    S8       S        0.48870    0.75734    0.84270    1.000
    S9       S        0.49840    0.64316    0.03430    1.000
    N7       N        0.68810    0.52830    0.20370    1.000
    N8       N        0.96740    0.72200    0.93210    1.000
    N9       N        0.12430    0.59130    0.07770    1.000
    C7       C        0.52250    0.51150    0.22090    1.000
    C8       C        0.76850    0.73560    0.89450    1.000
    C9       C        0.27500    0.61230    0.06020    1.000
    Cu7      Cu       0.07880    0.04002    0.42319    1.000
    Cu8      Cu       0.67576    0.21290    0.48615    1.000
    S10      S        0.72040    0.98640    0.25520    1.000
    S11      S        0.51130    0.25734    0.65730    1.000
    S12      S        0.50160    0.14316    0.46570    1.000
    N10      N        0.31190    0.02830    0.29630    1.000
    N11      N        0.03260    0.22200    0.56790    1.000
    N12      N        0.87570    0.09130    0.42230    1.000
    C10      C        0.47750    0.01150    0.27910    1.000
    C11      C        0.23150    0.23560    0.60550    1.000
    C12      C        0.72500    0.11230    0.43980    1.000
