# CIF file generated by openbabel 3.1.0, see https://openbabel.org
data_I
_chemical_name_common 'image0'
_cell_length_a 17.8531
_cell_length_b 12.6225
_cell_length_c 11.1909
_cell_angle_alpha 90
_cell_angle_beta 94.8394
_cell_angle_gamma 90
_space_group_name_H-M_alt 'P 1'
_space_group_name_Hall 'P 1'
loop_
    _symmetry_equiv_pos_as_xyz
    x,y,z
loop_
    _atom_site_label
    _atom_site_type_symbol
    _atom_site_fract_x
    _atom_site_fract_y
    _atom_site_fract_z
    _atom_site_occupancy
    Co1      Co       0.42133    0.55929    0.50051    1.000
    N1       N        0.87397    0.93480    0.16230    1.000
    N2       N        0.91086    0.98290    0.25610    1.000
    N3       N        0.87731    0.97050    0.35620    1.000
    C1       C        0.81189    0.88740    0.20540    1.000
    C2       C        0.81485    0.91090    0.32810    1.000
    C3       C        0.75980    0.87360    0.40060    1.000
    H1       H        0.76220    0.88850    0.48310    1.000
    C4       C        0.70280    0.81470    0.34520    1.000
    H2       H        0.66520    0.78840    0.39110    1.000
    C5       C        0.69862    0.79190    0.22040    1.000
    C6       C        0.75280    0.82740    0.14910    1.000
    H3       H        0.75030    0.81210    0.06660    1.000
    C7       C        0.63320    0.72640    0.16850    1.000
    O1       O        0.52018    0.58038    0.43210    1.000
    H4       H        0.54300    0.64100    0.46700    1.000
    O2       O        0.63586    0.69020    0.06320    1.000
    O3       O        0.58102    0.71240    0.23500    1.000
    Co2      Co       0.92133    0.05929    0.50051    1.000
    N4       N        0.37397    0.43480    0.16230    1.000
    N5       N        0.41086    0.48290    0.25610    1.000
    N6       N        0.37731    0.47050    0.35620    1.000
    C8       C        0.31189    0.38740    0.20540    1.000
    C9       C        0.31485    0.41090    0.32810    1.000
    C10      C        0.25980    0.37360    0.40060    1.000
    H5       H        0.26220    0.38850    0.48310    1.000
    C11      C        0.20280    0.31470    0.34520    1.000
    H6       H        0.16520    0.28840    0.39110    1.000
    C12      C        0.19862    0.29190    0.22040    1.000
    C13      C        0.25280    0.32740    0.14910    1.000
    H7       H        0.25030    0.31210    0.06660    1.000
    C14      C        0.13320    0.22640    0.16850    1.000
    O4       O        0.02018    0.08038    0.43210    1.000
    H8       H        0.04300    0.14100    0.46700    1.000
    O5       O        0.13586    0.19020    0.06320    1.000
    O6       O        0.08102    0.21240    0.23500    1.000
    Co3      Co       0.57867    0.55929    0.99949    1.000
    N7       N        0.12603    0.93480    0.33770    1.000
    N8       N        0.08914    0.98290    0.24390    1.000
    N9       N        0.12269    0.97050    0.14380    1.000
    C15      C        0.18811    0.88740    0.29460    1.000
    C16      C        0.18515    0.91090    0.17190    1.000
    C17      C        0.24020    0.87360    0.09940    1.000
    H9       H        0.23780    0.88850    0.01690    1.000
    C18      C        0.29720    0.81470    0.15480    1.000
    H10      H        0.33480    0.78840    0.10890    1.000
    C19      C        0.30138    0.79190    0.27960    1.000
    C20      C        0.24720    0.82740    0.35090    1.000
    H11      H        0.24970    0.81210    0.43340    1.000
    C21      C        0.36680    0.72640    0.33150    1.000
    O7       O        0.47982    0.58038    0.06790    1.000
    H12      H        0.45700    0.64100    0.03300    1.000
    O8       O        0.36414    0.69020    0.43680    1.000
    O9       O        0.41898    0.71240    0.26500    1.000
    Co4      Co       0.07867    0.05929    0.99949    1.000
    N10      N        0.62603    0.43480    0.33770    1.000
    N11      N        0.58914    0.48290    0.24390    1.000
    N12      N        0.62269    0.47050    0.14380    1.000
    C22      C        0.68811    0.38740    0.29460    1.000
    C23      C        0.68515    0.41090    0.17190    1.000
    C24      C        0.74020    0.37360    0.09940    1.000
    H13      H        0.73780    0.38850    0.01690    1.000
    C25      C        0.79720    0.31470    0.15480    1.000
    H14      H        0.83480    0.28840    0.10890    1.000
    C26      C        0.80138    0.29190    0.27960    1.000
    C27      C        0.74720    0.32740    0.35090    1.000
    H15      H        0.74970    0.31210    0.43340    1.000
    C28      C        0.86680    0.22640    0.33150    1.000
    O10      O        0.97982    0.08038    0.06790    1.000
    H16      H        0.95700    0.14100    0.03300    1.000
    O11      O        0.86414    0.19020    0.43680    1.000
    O12      O        0.91898    0.21240    0.26500    1.000
    Co5      Co       0.57867    0.44071    0.49949    1.000
    N13      N        0.12603    0.06520    0.83770    1.000
    N14      N        0.08914    0.01710    0.74390    1.000
    N15      N        0.12269    0.02950    0.64380    1.000
    C29      C        0.18811    0.11260    0.79460    1.000
    C30      C        0.18515    0.08910    0.67190    1.000
    C31      C        0.24020    0.12640    0.59940    1.000
    H17      H        0.23780    0.11150    0.51690    1.000
    C32      C        0.29720    0.18530    0.65480    1.000
    H18      H        0.33480    0.21160    0.60890    1.000
    C33      C        0.30138    0.20810    0.77960    1.000
    C34      C        0.24720    0.17260    0.85090    1.000
    H19      H        0.24970    0.18790    0.93340    1.000
    C35      C        0.36680    0.27360    0.83150    1.000
    O13      O        0.47982    0.41962    0.56790    1.000
    H20      H        0.45700    0.35900    0.53300    1.000
    O14      O        0.36414    0.30980    0.93680    1.000
    O15      O        0.41898    0.28760    0.76500    1.000
    Co6      Co       0.07867    0.94071    0.49949    1.000
    N16      N        0.62603    0.56520    0.83770    1.000
    N17      N        0.58914    0.51710    0.74390    1.000
    N18      N        0.62269    0.52950    0.64380    1.000
    C36      C        0.68811    0.61260    0.79460    1.000
    C37      C        0.68515    0.58910    0.67190    1.000
    C38      C        0.74020    0.62640    0.59940    1.000
    H21      H        0.73780    0.61150    0.51690    1.000
    C39      C        0.79720    0.68530    0.65480    1.000
    H22      H        0.83480    0.71160    0.60890    1.000
    C40      C        0.80138    0.70810    0.77960    1.000
    C41      C        0.74720    0.67260    0.85090    1.000
    H23      H        0.74970    0.68790    0.93340    1.000
    C42      C        0.86680    0.77360    0.83150    1.000
    O16      O        0.97982    0.91962    0.56790    1.000
    H24      H        0.95700    0.85900    0.53300    1.000
    O17      O        0.86414    0.80980    0.93680    1.000
    O18      O        0.91898    0.78760    0.76500    1.000
    Co7      Co       0.42133    0.44071    0.00051    1.000
    N19      N        0.87397    0.06520    0.66230    1.000
    N20      N        0.91086    0.01710    0.75610    1.000
    N21      N        0.87731    0.02950    0.85620    1.000
    C43      C        0.81189    0.11260    0.70540    1.000
    C44      C        0.81485    0.08910    0.82810    1.000
    C45      C        0.75980    0.12640    0.90060    1.000
    H25      H        0.76220    0.11150    0.98310    1.000
    C46      C        0.70280    0.18530    0.84520    1.000
    H26      H        0.66520    0.21160    0.89110    1.000
    C47      C        0.69862    0.20810    0.72040    1.000
    C48      C        0.75280    0.17260    0.64910    1.000
    H27      H        0.75030    0.18790    0.56660    1.000
    C49      C        0.63320    0.27360    0.66850    1.000
    O19      O        0.52018    0.41962    0.93210    1.000
    H28      H        0.54300    0.35900    0.96700    1.000
    O20      O        0.63586    0.30980    0.56320    1.000
    O21      O        0.58102    0.28760    0.73500    1.000
    Co8      Co       0.92133    0.94071    0.00051    1.000
    N22      N        0.37397    0.56520    0.66230    1.000
    N23      N        0.41086    0.51710    0.75610    1.000
    N24      N        0.37731    0.52950    0.85620    1.000
    C50      C        0.31189    0.61260    0.70540    1.000
    C51      C        0.31485    0.58910    0.82810    1.000
    C52      C        0.25980    0.62640    0.90060    1.000
    H29      H        0.26220    0.61150    0.98310    1.000
    C53      C        0.20280    0.68530    0.84520    1.000
    H30      H        0.16520    0.71160    0.89110    1.000
    C54      C        0.19862    0.70810    0.72040    1.000
    C55      C        0.25280    0.67260    0.64910    1.000
    H31      H        0.25030    0.68790    0.56660    1.000
    C56      C        0.13320    0.77360    0.66850    1.000
    O22      O        0.02018    0.91962    0.93210    1.000
    H32      H        0.04300    0.85900    0.96700    1.000
    O23      O        0.13586    0.80980    0.56320    1.000
    O24      O        0.08102    0.78760    0.73500    1.000
    Co9      Co       0.50000    0.59580    0.25000    1.000
    Co10     Co       0.00000    0.09580    0.25000    1.000
    Co11     Co       0.50000    0.40420    0.75000    1.000
    Co12     Co       0.00000    0.90420    0.75000    1.000
