# CIF file generated by openbabel 3.1.0, see https://openbabel.org
data_I
_chemical_name_common 'image0'
_cell_length_a 20.5835
_cell_length_b 12.0082
_cell_length_c 17.064
_cell_angle_alpha 90
_cell_angle_beta 90
_cell_angle_gamma 90
_space_group_name_H-M_alt 'P 1'
_space_group_name_Hall 'P 1'
loop_
    _symmetry_equiv_pos_as_xyz
    x,y,z
loop_
    _atom_site_label
    _atom_site_type_symbol
    _atom_site_fract_x
    _atom_site_fract_y
    _atom_site_fract_z
    _atom_site_occupancy
    Zn1      Zn       0.58755    0.04008    0.05610    1.000
    O1       O        0.67402    0.03470    0.10392    1.000
    C1       C        0.70989    0.95420    0.08540    1.000
    C2       C        0.77804    0.95610    0.11810    1.000
    O2       O        0.69246    0.87470    0.04520    1.000
    C3       C        0.80009    0.04710    0.16050    1.000
    C4       C        0.81780    0.86450    0.10820    1.000
    H1       H        0.77340    0.10910    0.16590    1.000
    C5       C        0.86153    0.04750    0.19520    1.000
    C6       C        0.87839    0.86200    0.14320    1.000
    H2       H        0.80390    0.80460    0.07790    1.000
    C7       C        0.88536    0.14560    0.23960    1.000
    C8       C        0.89978    0.95260    0.18720    1.000
    C9       C        0.91800    0.75730    0.14040    1.000
    C10      C        0.87090    0.25270    0.21460    1.000
    C11      C        0.92290    0.13510    0.30700    1.000
    H3       H        0.94020    0.94960    0.21160    1.000
    O3       O        0.92069    0.70320    0.07830    1.000
    O4       O        0.94560    0.73470    0.20200    1.000
    H4       H        0.84630    0.26280    0.16940    1.000
    C12      C        0.89240    0.34410    0.25550    1.000
    H5       H        0.93370    0.06430    0.32480    1.000
    C13      C        0.94440    0.22680    0.34780    1.000
    H6       H        0.88200    0.41480    0.23740    1.000
    C14      C        0.92922    0.33380    0.32310    1.000
    H7       H        0.96940    0.21690    0.39260    1.000
    O5       O        0.97659    0.44090    0.09735    1.000
    O6       O        0.90648    0.53250    0.94483    1.000
    P1       P        0.95344    0.45530    0.37745    1.000
    O7       O        0.94395    0.55360    0.32230    1.000
    Zn2      Zn       0.91245    0.45992    0.55610    1.000
    O8       O        0.82598    0.46530    0.60392    1.000
    C15      C        0.79011    0.54580    0.58540    1.000
    C16      C        0.72196    0.54390    0.61810    1.000
    O9       O        0.80754    0.62530    0.54520    1.000
    C17      C        0.69991    0.45290    0.66050    1.000
    C18      C        0.68220    0.63550    0.60820    1.000
    H8       H        0.72660    0.39090    0.66590    1.000
    C19      C        0.63847    0.45250    0.69520    1.000
    C20      C        0.62161    0.63800    0.64320    1.000
    H9       H        0.69610    0.69540    0.57790    1.000
    C21      C        0.61464    0.35440    0.73960    1.000
    C22      C        0.60022    0.54740    0.68720    1.000
    C23      C        0.58200    0.74270    0.64040    1.000
    C24      C        0.62910    0.24730    0.71460    1.000
    C25      C        0.57710    0.36490    0.80700    1.000
    H10      H        0.55980    0.55040    0.71160    1.000
    O10      O        0.57931    0.79680    0.57830    1.000
    O11      O        0.55440    0.76530    0.70200    1.000
    H11      H        0.65370    0.23720    0.66940    1.000
    C26      C        0.60760    0.15590    0.75550    1.000
    H12      H        0.56630    0.43570    0.82480    1.000
    C27      C        0.55560    0.27320    0.84780    1.000
    H13      H        0.61800    0.08520    0.73740    1.000
    C28      C        0.57078    0.16620    0.82310    1.000
    H14      H        0.53060    0.28310    0.89260    1.000
    O12      O        0.52341    0.05910    0.59735    1.000
    O13      O        0.59352    0.96750    0.44483    1.000
    P2       P        0.54656    0.04470    0.87745    1.000
    O14      O        0.55605    0.94640    0.82230    1.000
    Zn3      Zn       0.41245    0.04008    0.44390    1.000
    O15      O        0.32598    0.03470    0.39608    1.000
    C29      C        0.29011    0.95420    0.41460    1.000
    C30      C        0.22196    0.95610    0.38190    1.000
    O16      O        0.30754    0.87470    0.45480    1.000
    C31      C        0.19991    0.04710    0.33950    1.000
    C32      C        0.18220    0.86450    0.39180    1.000
    H15      H        0.22660    0.10910    0.33410    1.000
    C33      C        0.13847    0.04750    0.30480    1.000
    C34      C        0.12161    0.86200    0.35680    1.000
    H16      H        0.19610    0.80460    0.42210    1.000
    C35      C        0.11464    0.14560    0.26040    1.000
    C36      C        0.10022    0.95260    0.31280    1.000
    C37      C        0.08200    0.75730    0.35960    1.000
    C38      C        0.12910    0.25270    0.28540    1.000
    C39      C        0.07710    0.13510    0.19300    1.000
    H17      H        0.05980    0.94960    0.28840    1.000
    O17      O        0.07931    0.70320    0.42170    1.000
    O18      O        0.05440    0.73470    0.29800    1.000
    H18      H        0.15370    0.26280    0.33060    1.000
    C40      C        0.10760    0.34410    0.24450    1.000
    H19      H        0.06630    0.06430    0.17520    1.000
    C41      C        0.05560    0.22680    0.15220    1.000
    H20      H        0.11800    0.41480    0.26260    1.000
    C42      C        0.07078    0.33380    0.17690    1.000
    H21      H        0.03060    0.21690    0.10740    1.000
    O19      O        0.02341    0.44090    0.40265    1.000
    O20      O        0.09352    0.53250    0.55517    1.000
    P3       P        0.04656    0.45530    0.12255    1.000
    O21      O        0.05605    0.55360    0.17770    1.000
    Zn4      Zn       0.08755    0.45992    0.94390    1.000
    O22      O        0.17402    0.46530    0.89608    1.000
    C43      C        0.20989    0.54580    0.91460    1.000
    C44      C        0.27804    0.54390    0.88190    1.000
    O23      O        0.19246    0.62530    0.95480    1.000
    C45      C        0.30009    0.45290    0.83950    1.000
    C46      C        0.31780    0.63550    0.89180    1.000
    H22      H        0.27340    0.39090    0.83410    1.000
    C47      C        0.36153    0.45250    0.80480    1.000
    C48      C        0.37839    0.63800    0.85680    1.000
    H23      H        0.30390    0.69540    0.92210    1.000
    C49      C        0.38536    0.35440    0.76040    1.000
    C50      C        0.39978    0.54740    0.81280    1.000
    C51      C        0.41800    0.74270    0.85960    1.000
    C52      C        0.37090    0.24730    0.78540    1.000
    C53      C        0.42290    0.36490    0.69300    1.000
    H24      H        0.44020    0.55040    0.78840    1.000
    O24      O        0.42069    0.79680    0.92170    1.000
    O25      O        0.44560    0.76530    0.79800    1.000
    H25      H        0.34630    0.23720    0.83060    1.000
    C54      C        0.39240    0.15590    0.74450    1.000
    H26      H        0.43370    0.43570    0.67520    1.000
    C55      C        0.44440    0.27320    0.65220    1.000
    H27      H        0.38200    0.08520    0.76260    1.000
    C56      C        0.42922    0.16620    0.67690    1.000
    H28      H        0.46940    0.28310    0.60740    1.000
    O26      O        0.47659    0.05910    0.90265    1.000
    O27      O        0.40648    0.96750    0.05517    1.000
    P4       P        0.45344    0.04470    0.62255    1.000
    O28      O        0.44395    0.94640    0.67770    1.000
    Zn5      Zn       0.41245    0.95992    0.94390    1.000
    O29      O        0.32598    0.96530    0.89608    1.000
    C57      C        0.29011    0.04580    0.91460    1.000
    C58      C        0.22196    0.04390    0.88190    1.000
    O30      O        0.30754    0.12530    0.95480    1.000
    C59      C        0.19991    0.95290    0.83950    1.000
    C60      C        0.18220    0.13550    0.89180    1.000
    H29      H        0.22660    0.89090    0.83410    1.000
    C61      C        0.13847    0.95250    0.80480    1.000
    C62      C        0.12161    0.13800    0.85680    1.000
    H30      H        0.19610    0.19540    0.92210    1.000
    C63      C        0.11464    0.85440    0.76040    1.000
    C64      C        0.10022    0.04740    0.81280    1.000
    C65      C        0.08200    0.24270    0.85960    1.000
    C66      C        0.12910    0.74730    0.78540    1.000
    C67      C        0.07710    0.86490    0.69300    1.000
    H31      H        0.05980    0.05040    0.78840    1.000
    O31      O        0.07931    0.29680    0.92170    1.000
    O32      O        0.05440    0.26530    0.79800    1.000
    H32      H        0.15370    0.73720    0.83060    1.000
    C68      C        0.10760    0.65590    0.74450    1.000
    H33      H        0.06630    0.93570    0.67520    1.000
    C69      C        0.05560    0.77320    0.65220    1.000
    H34      H        0.11800    0.58520    0.76260    1.000
    C70      C        0.07078    0.66620    0.67690    1.000
    H35      H        0.03060    0.78310    0.60740    1.000
    O33      O        0.02341    0.55910    0.90265    1.000
    O34      O        0.09352    0.46750    0.05517    1.000
    P5       P        0.04656    0.54470    0.62255    1.000
    O35      O        0.05605    0.44640    0.67770    1.000
    Zn6      Zn       0.08755    0.54008    0.44390    1.000
    O36      O        0.17402    0.53470    0.39608    1.000
    C71      C        0.20989    0.45420    0.41460    1.000
    C72      C        0.27804    0.45610    0.38190    1.000
    O37      O        0.19246    0.37470    0.45480    1.000
    C73      C        0.30009    0.54710    0.33950    1.000
    C74      C        0.31780    0.36450    0.39180    1.000
    H36      H        0.27340    0.60910    0.33410    1.000
    C75      C        0.36153    0.54750    0.30480    1.000
    C76      C        0.37839    0.36200    0.35680    1.000
    H37      H        0.30390    0.30460    0.42210    1.000
    C77      C        0.38536    0.64560    0.26040    1.000
    C78      C        0.39978    0.45260    0.31280    1.000
    C79      C        0.41800    0.25730    0.35960    1.000
    C80      C        0.37090    0.75270    0.28540    1.000
    C81      C        0.42290    0.63510    0.19300    1.000
    H38      H        0.44020    0.44960    0.28840    1.000
    O38      O        0.42069    0.20320    0.42170    1.000
    O39      O        0.44560    0.23470    0.29800    1.000
    H39      H        0.34630    0.76280    0.33060    1.000
    C82      C        0.39240    0.84410    0.24450    1.000
    H40      H        0.43370    0.56430    0.17520    1.000
    C83      C        0.44440    0.72680    0.15220    1.000
    H41      H        0.38200    0.91480    0.26260    1.000
    C84      C        0.42922    0.83380    0.17690    1.000
    H42      H        0.46940    0.71690    0.10740    1.000
    O40      O        0.47659    0.94090    0.40265    1.000
    O41      O        0.40648    0.03250    0.55517    1.000
    P6       P        0.45344    0.95530    0.12255    1.000
    O42      O        0.44395    0.05360    0.17770    1.000
    Zn7      Zn       0.58755    0.95992    0.55610    1.000
    O43      O        0.67402    0.96530    0.60392    1.000
    C85      C        0.70989    0.04580    0.58540    1.000
    C86      C        0.77804    0.04390    0.61810    1.000
    O44      O        0.69246    0.12530    0.54520    1.000
    C87      C        0.80009    0.95290    0.66050    1.000
    C88      C        0.81780    0.13550    0.60820    1.000
    H43      H        0.77340    0.89090    0.66590    1.000
    C89      C        0.86153    0.95250    0.69520    1.000
    C90      C        0.87839    0.13800    0.64320    1.000
    H44      H        0.80390    0.19540    0.57790    1.000
    C91      C        0.88536    0.85440    0.73960    1.000
    C92      C        0.89978    0.04740    0.68720    1.000
    C93      C        0.91800    0.24270    0.64040    1.000
    C94      C        0.87090    0.74730    0.71460    1.000
    C95      C        0.92290    0.86490    0.80700    1.000
    H45      H        0.94020    0.05040    0.71160    1.000
    O45      O        0.92069    0.29680    0.57830    1.000
    O46      O        0.94560    0.26530    0.70200    1.000
    H46      H        0.84630    0.73720    0.66940    1.000
    C96      C        0.89240    0.65590    0.75550    1.000
    H47      H        0.93370    0.93570    0.82480    1.000
    C97      C        0.94440    0.77320    0.84780    1.000
    H48      H        0.88200    0.58520    0.73740    1.000
    C98      C        0.92922    0.66620    0.82310    1.000
    H49      H        0.96940    0.78310    0.89260    1.000
    O47      O        0.97659    0.55910    0.59735    1.000
    O48      O        0.90648    0.46750    0.44483    1.000
    P7       P        0.95344    0.54470    0.87745    1.000
    O49      O        0.94395    0.44640    0.82230    1.000
    Zn8      Zn       0.91245    0.54008    0.05610    1.000
    O50      O        0.82598    0.53470    0.10392    1.000
    C99      C        0.79011    0.45420    0.08540    1.000
    C100     C        0.72196    0.45610    0.11810    1.000
    O51      O        0.80754    0.37470    0.04520    1.000
    C101     C        0.69991    0.54710    0.16050    1.000
    C102     C        0.68220    0.36450    0.10820    1.000
    H50      H        0.72660    0.60910    0.16590    1.000
    C103     C        0.63847    0.54750    0.19520    1.000
    C104     C        0.62161    0.36200    0.14320    1.000
    H51      H        0.69610    0.30460    0.07790    1.000
    C105     C        0.61464    0.64560    0.23960    1.000
    C106     C        0.60022    0.45260    0.18720    1.000
    C107     C        0.58200    0.25730    0.14040    1.000
    C108     C        0.62910    0.75270    0.21460    1.000
    C109     C        0.57710    0.63510    0.30700    1.000
    H52      H        0.55980    0.44960    0.21160    1.000
    O52      O        0.57931    0.20320    0.07830    1.000
    O53      O        0.55440    0.23470    0.20200    1.000
    H53      H        0.65370    0.76280    0.16940    1.000
    C110     C        0.60760    0.84410    0.25550    1.000
    H54      H        0.56630    0.56430    0.32480    1.000
    C111     C        0.55560    0.72680    0.34780    1.000
    H55      H        0.61800    0.91480    0.23740    1.000
    C112     C        0.57078    0.83380    0.32310    1.000
    H56      H        0.53060    0.71690    0.39260    1.000
    O54      O        0.52341    0.94090    0.09735    1.000
    O55      O        0.59352    0.03250    0.94483    1.000
    P8       P        0.54656    0.95530    0.37745    1.000
    O56      O        0.55605    0.05360    0.32230    1.000
    Zn9      Zn       0.00000    0.62251    0.25000    1.000
    Zn10     Zn       0.50000    0.87749    0.75000    1.000
    Zn11     Zn       0.00000    0.37749    0.75000    1.000
    Zn12     Zn       0.50000    0.12251    0.25000    1.000
