# CIF file generated by openbabel 3.1.0, see https://openbabel.org
data_I
_chemical_name_common 'PEVLIN_clean'
_cell_length_a 6.9059
_cell_length_b 9.989
_cell_length_c 11.0921
_cell_angle_alpha 116.761
_cell_angle_beta 104.274
_cell_angle_gamma 90
_space_group_name_H-M_alt 'P 1'
_space_group_name_Hall 'P 1'
loop_
    _symmetry_equiv_pos_as_xyz
    x,y,z
loop_
    _atom_site_label
    _atom_site_type_symbol
    _atom_site_fract_x
    _atom_site_fract_y
    _atom_site_fract_z
    _atom_site_occupancy
    Nd1      Nd       0.44236    0.90850    0.29621    1.000
    Nd2      Nd       0.94236    0.38771    0.29621    1.000
    H1       H        0.45970    0.67890    0.68280    1.000
    H2       H        0.63320    0.85220    0.90940    1.000
    H3       H        0.53000    0.18870    0.80480    1.000
    H4       H        0.18760    0.17900    0.63740    1.000
    H5       H        0.39030    0.24740    0.63360    1.000
    H6       H        0.95970    0.00390    0.68280    1.000
    H7       H        0.13320    0.05720    0.90940    1.000
    H8       H        0.03000    0.61610    0.80480    1.000
    H9       H        0.68760    0.45840    0.63740    1.000
    H10      H        0.89030    0.38620    0.63360    1.000
    C1       C        0.42580    0.97940    0.64240    1.000
    C2       C        0.40400    0.82540    0.60240    1.000
    C3       C        0.47800    0.78080    0.70620    1.000
    C4       C        0.57790    0.88430    0.84300    1.000
    C5       C        0.59420    0.03750    0.87960    1.000
    C6       C        0.51860    0.08620    0.77980    1.000
    C7       C        0.27850    0.16670    0.58000    1.000
    C8       C        0.16900    0.17070    0.44520    1.000
    C9       C        0.29800    0.70420    0.45480    1.000
    C10      C        0.70220    0.15550    0.02640    1.000
    C11      C        0.92580    0.66300    0.64240    1.000
    C12      C        0.90400    0.77700    0.60240    1.000
    C13      C        0.97800    0.92540    0.70620    1.000
    C14      C        0.07790    0.95870    0.84300    1.000
    C15      C        0.09420    0.84210    0.87960    1.000
    C16      C        0.01860    0.69360    0.77980    1.000
    C17      C        0.77850    0.41330    0.58000    1.000
    C18      C        0.66900    0.27450    0.44520    1.000
    C19      C        0.79800    0.75060    0.45480    1.000
    C20      C        0.20220    0.87090    0.02640    1.000
    O1       O        0.35030    0.02190    0.53900    1.000
    O2       O        0.15650    0.05462    0.33064    1.000
    O3       O        0.10020    0.28898    0.45916    1.000
    O4       O        0.28460    0.73141    0.35122    1.000
    O5       O        0.22570    0.58229    0.44158    1.000
    O6       O        0.83650    0.11875    0.10230    1.000
    O7       O        0.65980    0.28830    0.07000    1.000
    O8       O        0.85030    0.51710    0.53900    1.000
    O9       O        0.65650    0.27602    0.33064    1.000
    O10      O        0.60020    0.17018    0.45916    1.000
    O11      O        0.78460    0.61981    0.35122    1.000
    O12      O        0.72570    0.85929    0.44158    1.000
    O13      O        0.33650    0.98355    0.10230    1.000
    O14      O        0.15980    0.78170    0.07000    1.000
