# CIF file generated by openbabel 3.1.0, see https://openbabel.org
data_I
_chemical_name_common 'CUSDIE_charged'
_cell_length_a 18.2186
_cell_length_b 18.2186
_cell_length_c 18.2186
_cell_angle_alpha 109.471
_cell_angle_beta 109.471
_cell_angle_gamma 109.471
_space_group_name_H-M_alt 'P 1'
_space_group_name_Hall 'P 1'
loop_
    _symmetry_equiv_pos_as_xyz
    x,y,z
loop_
    _atom_site_label
    _atom_site_type_symbol
    _atom_site_fract_x
    _atom_site_fract_y
    _atom_site_fract_z
    _atom_site_occupancy
    Cu1      Cu       0.00000    0.51570    0.88676    1.000
    Cu2      Cu       0.62894    0.11324    0.11324    1.000
    Cu3      Cu       0.37106    0.48430    0.48430    1.000
    Cu4      Cu       0.00000    0.88676    0.51570    1.000
    Cu5      Cu       0.48430    0.37106    0.48430    1.000
    Cu6      Cu       0.51570    0.00000    0.88676    1.000
    Cu7      Cu       0.88676    0.00000    0.51570    1.000
    Cu8      Cu       0.11324    0.62894    0.11324    1.000
    Cu9      Cu       0.11324    0.11324    0.62894    1.000
    Cu10     Cu       0.51570    0.88676    0.00000    1.000
    Cu11     Cu       0.88676    0.51570    0.00000    1.000
    Cu12     Cu       0.48430    0.48430    0.37106    1.000
    H1       H        0.86940    0.17950    0.55970    1.000
    H2       H        0.94620    0.35180    0.61300    1.000
    H3       H        0.61980    0.30970    0.44030    1.000
    H4       H        0.73880    0.33320    0.38700    1.000
    H5       H        0.38020    0.82050    0.68990    1.000
    H6       H        0.26120    0.64820    0.59440    1.000
    H7       H        0.13060    0.69030    0.31010    1.000
    H8       H        0.05380    0.66680    0.40560    1.000
    H9       H        0.68990    0.38020    0.82050    1.000
    H10      H        0.59440    0.26120    0.64820    1.000
    H11      H        0.31010    0.13060    0.69030    1.000
    H12      H        0.40560    0.05380    0.66680    1.000
    H13      H        0.55970    0.86940    0.17950    1.000
    H14      H        0.61300    0.94620    0.35180    1.000
    H15      H        0.44030    0.61980    0.30970    1.000
    H16      H        0.38700    0.73880    0.33320    1.000
    H17      H        0.30970    0.44030    0.61980    1.000
    H18      H        0.33320    0.38700    0.73880    1.000
    H19      H        0.17950    0.55970    0.86940    1.000
    H20      H        0.35180    0.61300    0.94620    1.000
    H21      H        0.69030    0.31010    0.13060    1.000
    H22      H        0.66680    0.40560    0.05380    1.000
    H23      H        0.82050    0.68990    0.38020    1.000
    H24      H        0.64820    0.59440    0.26120    1.000
    H25      H        0.30970    0.61980    0.44030    1.000
    H26      H        0.33320    0.73880    0.38700    1.000
    H27      H        0.17950    0.86940    0.55970    1.000
    H28      H        0.35180    0.94620    0.61300    1.000
    H29      H        0.69030    0.13060    0.31010    1.000
    H30      H        0.66680    0.05380    0.40560    1.000
    H31      H        0.82050    0.38020    0.68990    1.000
    H32      H        0.64820    0.26120    0.59440    1.000
    H33      H        0.86940    0.55970    0.17950    1.000
    H34      H        0.94620    0.61300    0.35180    1.000
    H35      H        0.61980    0.44030    0.30970    1.000
    H36      H        0.73880    0.38700    0.33320    1.000
    H37      H        0.38020    0.68990    0.82050    1.000
    H38      H        0.26120    0.59440    0.64820    1.000
    H39      H        0.13060    0.31010    0.69030    1.000
    H40      H        0.05380    0.40560    0.66680    1.000
    H41      H        0.68990    0.82050    0.38020    1.000
    H42      H        0.59440    0.64820    0.26120    1.000
    H43      H        0.31010    0.69030    0.13060    1.000
    H44      H        0.40560    0.66680    0.05380    1.000
    H45      H        0.55970    0.17950    0.86940    1.000
    H46      H        0.61300    0.35180    0.94620    1.000
    H47      H        0.44030    0.30970    0.61980    1.000
    H48      H        0.38700    0.33320    0.73880    1.000
    C1       C        0.93000    0.19230    0.58510    1.000
    C2       C        0.60720    0.34490    0.41490    1.000
    C3       C        0.39280    0.80770    0.73770    1.000
    C4       C        0.07000    0.65510    0.26230    1.000
    C5       C        0.73770    0.39280    0.80770    1.000
    C6       C        0.26230    0.07000    0.65510    1.000
    C7       C        0.58510    0.93000    0.19230    1.000
    C8       C        0.41490    0.60720    0.34490    1.000
    C9       C        0.34490    0.41490    0.60720    1.000
    C10      C        0.19230    0.58510    0.93000    1.000
    C11      C        0.65510    0.26230    0.07000    1.000
    C12      C        0.80770    0.73770    0.39280    1.000
    C13      C        0.34490    0.60720    0.41490    1.000
    C14      C        0.19230    0.93000    0.58510    1.000
    C15      C        0.65510    0.07000    0.26230    1.000
    C16      C        0.80770    0.39280    0.73770    1.000
    C17      C        0.93000    0.58510    0.19230    1.000
    C18      C        0.60720    0.41490    0.34490    1.000
    C19      C        0.39280    0.73770    0.80770    1.000
    C20      C        0.07000    0.26230    0.65510    1.000
    C21      C        0.73770    0.80770    0.39280    1.000
    C22      C        0.26230    0.65510    0.07000    1.000
    C23      C        0.58510    0.19230    0.93000    1.000
    C24      C        0.41490    0.34490    0.60720    1.000
    C25      C        0.00000    0.35970    0.66010    1.000
    C26      C        0.00000    0.39280    0.74800    1.000
    C27      C        0.69960    0.33990    0.33990    1.000
    C28      C        0.64480    0.25200    0.25200    1.000
    C29      C        0.30040    0.64030    0.64030    1.000
    C30      C        0.35520    0.60720    0.60720    1.000
    C31      C        0.00000    0.66010    0.35970    1.000
    C32      C        0.00000    0.74800    0.39280    1.000
    C33      C        0.64030    0.30040    0.64030    1.000
    C34      C        0.60720    0.35520    0.60720    1.000
    C35      C        0.35970    0.00000    0.66010    1.000
    C36      C        0.39280    0.00000    0.74800    1.000
    C37      C        0.66010    0.00000    0.35970    1.000
    C38      C        0.74800    0.00000    0.39280    1.000
    C39      C        0.33990    0.69960    0.33990    1.000
    C40      C        0.25200    0.64480    0.25200    1.000
    C41      C        0.33990    0.33990    0.69960    1.000
    C42      C        0.25200    0.25200    0.64480    1.000
    C43      C        0.35970    0.66010    0.00000    1.000
    C44      C        0.39280    0.74800    0.00000    1.000
    C45      C        0.66010    0.35970    0.00000    1.000
    C46      C        0.74800    0.39280    0.00000    1.000
    C47      C        0.64030    0.64030    0.30040    1.000
    C48      C        0.60720    0.60720    0.35520    1.000
    N1       N        0.95400    0.13150    0.57810    1.000
    N2       N        0.55340    0.37590    0.42190    1.000
    N3       N        0.44660    0.86850    0.82250    1.000
    N4       N        0.04600    0.62410    0.17750    1.000
    N5       N        0.82250    0.44660    0.86850    1.000
    N6       N        0.17750    0.04600    0.62410    1.000
    N7       N        0.57810    0.95400    0.13150    1.000
    N8       N        0.42190    0.55340    0.37590    1.000
    N9       N        0.37590    0.42190    0.55340    1.000
    N10      N        0.13150    0.57810    0.95400    1.000
    N11      N        0.62410    0.17750    0.04600    1.000
    N12      N        0.86850    0.82250    0.44660    1.000
    N13      N        0.37590    0.55340    0.42190    1.000
    N14      N        0.13150    0.95400    0.57810    1.000
    N15      N        0.62410    0.04600    0.17750    1.000
    N16      N        0.86850    0.44660    0.82250    1.000
    N17      N        0.95400    0.57810    0.13150    1.000
    N18      N        0.55340    0.42190    0.37590    1.000
    N19      N        0.44660    0.82250    0.86850    1.000
    N20      N        0.04600    0.17750    0.62410    1.000
    N21      N        0.82250    0.86850    0.44660    1.000
    N22      N        0.17750    0.62410    0.04600    1.000
    N23      N        0.57810    0.13150    0.95400    1.000
    N24      N        0.42190    0.37590    0.55340    1.000
    N25      N        0.00000    0.27300    0.63120    1.000
    N26      N        0.64180    0.36880    0.36880    1.000
    N27      N        0.35820    0.72700    0.72700    1.000
    N28      N        0.00000    0.63120    0.27300    1.000
    N29      N        0.72700    0.35820    0.72700    1.000
    N30      N        0.27300    0.00000    0.63120    1.000
    N31      N        0.63120    0.00000    0.27300    1.000
    N32      N        0.36880    0.64180    0.36880    1.000
    N33      N        0.36880    0.36880    0.64180    1.000
    N34      N        0.27300    0.63120    0.00000    1.000
    N35      N        0.63120    0.27300    0.00000    1.000
    N36      N        0.72700    0.72700    0.35820    1.000
    O1       O        0.00000    0.35240    0.78740    1.000
    O2       O        0.00000    0.46810    0.77410    1.000
    O3       O        0.56500    0.21260    0.21260    1.000
    O4       O        0.69400    0.22590    0.22590    1.000
    O5       O        0.43500    0.64760    0.64760    1.000
    O6       O        0.30600    0.53190    0.53190    1.000
    O7       O        0.00000    0.78740    0.35240    1.000
    O8       O        0.00000    0.77410    0.46810    1.000
    O9       O        0.64760    0.43500    0.64760    1.000
    O10      O        0.53190    0.30600    0.53190    1.000
    O11      O        0.35240    0.00000    0.78740    1.000
    O12      O        0.46810    0.00000    0.77410    1.000
    O13      O        0.78740    0.00000    0.35240    1.000
    O14      O        0.77410    0.00000    0.46810    1.000
    O15      O        0.21260    0.56500    0.21260    1.000
    O16      O        0.22590    0.69400    0.22590    1.000
    O17      O        0.21260    0.21260    0.56500    1.000
    O18      O        0.22590    0.22590    0.69400    1.000
    O19      O        0.35240    0.78740    0.00000    1.000
    O20      O        0.46810    0.77410    0.00000    1.000
    O21      O        0.78740    0.35240    0.00000    1.000
    O22      O        0.77410    0.46810    0.00000    1.000
    O23      O        0.64760    0.64760    0.43500    1.000
    O24      O        0.53190    0.53190    0.30600    1.000
    O25      O        0.00000    0.55820    0.00000    1.000
    O26      O        0.55820    0.00000    0.00000    1.000
    O27      O        0.44180    0.44180    0.44180    1.000
    O28      O        0.00000    0.00000    0.55820    1.000
    B1       B        0.75000    0.25000    0.50000    1.000
    F1       F        0.76430    0.22480    0.56010    1.000
    F2       F        0.66470    0.20420    0.43990    1.000
    F3       F        0.79580    0.23570    0.46050    1.000
    F4       F        0.77520    0.33530    0.53950    1.000
    B2       B        0.25000    0.75000    0.50000    1.000
    F5       F        0.33530    0.77520    0.53950    1.000
    F6       F        0.23570    0.79580    0.46050    1.000
    F7       F        0.20420    0.66470    0.43990    1.000
    F8       F        0.22480    0.76430    0.56010    1.000
    B3       B        0.50000    0.25000    0.75000    1.000
    F9       F        0.53950    0.33530    0.77520    1.000
    F10      F        0.46050    0.23570    0.79580    1.000
    F11      F        0.56010    0.22480    0.76430    1.000
    F12      F        0.43990    0.20420    0.66470    1.000
    B4       B        0.50000    0.75000    0.25000    1.000
    F13      F        0.56010    0.76430    0.22480    1.000
    F14      F        0.43990    0.66470    0.20420    1.000
    F15      F        0.53950    0.77520    0.33530    1.000
    F16      F        0.46050    0.79580    0.23570    1.000
    B5       B        0.25000    0.50000    0.75000    1.000
    F17      F        0.20420    0.43990    0.66470    1.000
    F18      F        0.22480    0.56010    0.76430    1.000
    F19      F        0.33530    0.53950    0.77520    1.000
    F20      F        0.23570    0.46050    0.79580    1.000
    B6       B        0.75000    0.50000    0.25000    1.000
    F21      F        0.79580    0.46050    0.23570    1.000
    F22      F        0.77520    0.53950    0.33530    1.000
    F23      F        0.76430    0.56010    0.22480    1.000
    F24      F        0.66470    0.43990    0.20420    1.000
