# CIF file generated by openbabel 3.1.0, see https://openbabel.org
data_I
_chemical_name_common 'image0'
_cell_length_a 13.288
_cell_length_b 13.919
_cell_length_c 18.477
_cell_angle_alpha 90
_cell_angle_beta 96.318
_cell_angle_gamma 90
_space_group_name_H-M_alt 'P 1'
_space_group_name_Hall 'P 1'
loop_
    _symmetry_equiv_pos_as_xyz
    x,y,z
loop_
    _atom_site_label
    _atom_site_type_symbol
    _atom_site_fract_x
    _atom_site_fract_y
    _atom_site_fract_z
    _atom_site_occupancy
    Mn1      Mn       0.98705    0.05414    0.22259    1.000
    Mn2      Mn       0.06664    0.20730    0.36906    1.000
    C1       C        0.16550    0.01030    0.33820    1.000
    C2       C        0.23280    0.92890    0.36710    1.000
    C3       C        0.28540    0.87430    0.32110    1.000
    H1       H        0.28140    0.88930    0.27180    1.000
    C4       C        0.34350    0.79790    0.34830    1.000
    C5       C        0.34590    0.77380    0.42160    1.000
    H2       H        0.38430    0.72140    0.43940    1.000
    C6       C        0.29220    0.82660    0.46910    1.000
    C7       C        0.23850    0.90600    0.44030    1.000
    H3       H        0.20550    0.94490    0.47120    1.000
    C8       C        0.40320    0.73750    0.30020    1.000
    C9       C        0.28360    0.73820    0.69170    1.000
    H4       H        0.28350    0.72080    0.74030    1.000
    C10      C        0.22310    0.81120    0.66330    1.000
    C11      C        0.22500    0.83970    0.59150    1.000
    H5       H        0.18200    0.88830    0.57250    1.000
    C12      C        0.29100    0.79610    0.54730    1.000
    C13      C        0.34780    0.72000    0.57590    1.000
    H6       H        0.38920    0.68780    0.54650    1.000
    C14      C        0.34600    0.68940    0.64750    1.000
    C15      C        0.40150    0.60190    0.67500    1.000
    C16      C        0.14920    0.85610    0.70860    1.000
    C17      C        0.93700    0.40350    0.33700    1.000
    H7       H        0.95360    0.39540    0.28980    1.000
    C18      C        0.87960    0.48250    0.35050    1.000
    H8       H        0.85690    0.52490    0.31340    1.000
    C19      C        0.85760    0.49630    0.41840    1.000
    H9       H        0.82130    0.55040    0.42980    1.000
    C20      C        0.88820    0.43150    0.47060    1.000
    H10      H        0.87180    0.44020    0.51780    1.000
    C21      C        0.94350    0.35280    0.45400    1.000
    C22      C        0.97610    0.27760    0.50720    1.000
    C23      C        0.96250    0.28460    0.58220    1.000
    H11      H        0.93310    0.33840    0.60110    1.000
    C24      C        0.99550    0.20680    0.62620    1.000
    H12      H        0.98900    0.20910    0.67580    1.000
    C25      C        0.03760    0.12650    0.59790    1.000
    H13      H        0.05810    0.07440    0.62740    1.000
    C26      C        0.04820    0.12550    0.52550    1.000
    H14      H        0.07700    0.07150    0.50640    1.000
    N1       N        0.97020    0.33820    0.38570    1.000
    N2       N        0.02050    0.19570    0.48160    1.000
    O1       O        0.15010    0.07650    0.38142    1.000
    O2       O        0.12800    0.00530    0.27203    1.000
    O3       O        0.39970    0.75970    0.23466    1.000
    O4       O        0.45190    0.66860    0.33007    1.000
    O5       O        0.44500    0.54980    0.63239    1.000
    O6       O        0.40330    0.58040    0.74129    1.000
    O7       O        0.06210    0.88240    0.67677    1.000
    O8       O        0.17060    0.86680    0.77530    1.000
    Mn3      Mn       0.51295    0.55414    0.27741    1.000
    Mn4      Mn       0.43336    0.70730    0.13094    1.000
    C27      C        0.33450    0.51030    0.16180    1.000
    C28      C        0.26720    0.42890    0.13290    1.000
    C29      C        0.21460    0.37430    0.17890    1.000
    H15      H        0.21860    0.38930    0.22820    1.000
    C30      C        0.15650    0.29790    0.15170    1.000
    C31      C        0.15410    0.27380    0.07840    1.000
    H16      H        0.11570    0.22140    0.06060    1.000
    C32      C        0.20780    0.32660    0.03090    1.000
    C33      C        0.26150    0.40600    0.05970    1.000
    H17      H        0.29450    0.44490    0.02880    1.000
    C34      C        0.09680    0.23750    0.19980    1.000
    C35      C        0.21640    0.23820    0.80830    1.000
    H18      H        0.21650    0.22080    0.75970    1.000
    C36      C        0.27690    0.31120    0.83670    1.000
    C37      C        0.27500    0.33970    0.90850    1.000
    H19      H        0.31800    0.38830    0.92750    1.000
    C38      C        0.20900    0.29610    0.95270    1.000
    C39      C        0.15220    0.22000    0.92410    1.000
    H20      H        0.11080    0.18780    0.95350    1.000
    C40      C        0.15400    0.18940    0.85250    1.000
    C41      C        0.09850    0.10190    0.82500    1.000
    C42      C        0.35080    0.35610    0.79140    1.000
    C43      C        0.56300    0.90350    0.16300    1.000
    H21      H        0.54640    0.89540    0.21020    1.000
    C44      C        0.62040    0.98250    0.14950    1.000
    H22      H        0.64310    0.02490    0.18660    1.000
    C45      C        0.64240    0.99630    0.08160    1.000
    H23      H        0.67870    0.05040    0.07020    1.000
    C46      C        0.61180    0.93150    0.02940    1.000
    H24      H        0.62820    0.94020    0.98220    1.000
    C47      C        0.55650    0.85280    0.04600    1.000
    C48      C        0.52390    0.77760    0.99280    1.000
    C49      C        0.53750    0.78460    0.91780    1.000
    H25      H        0.56690    0.83840    0.89890    1.000
    C50      C        0.50450    0.70680    0.87380    1.000
    H26      H        0.51100    0.70910    0.82420    1.000
    C51      C        0.46240    0.62650    0.90210    1.000
    H27      H        0.44190    0.57440    0.87260    1.000
    C52      C        0.45180    0.62550    0.97450    1.000
    H28      H        0.42300    0.57150    0.99360    1.000
    N3       N        0.52980    0.83820    0.11430    1.000
    N4       N        0.47950    0.69570    0.01840    1.000
    O9       O        0.34990    0.57650    0.11858    1.000
    O10      O        0.37200    0.50530    0.22797    1.000
    O11      O        0.10030    0.25970    0.26534    1.000
    O12      O        0.04810    0.16860    0.16993    1.000
    O13      O        0.05500    0.04980    0.86761    1.000
    O14      O        0.09670    0.08040    0.75871    1.000
    O15      O        0.43790    0.38240    0.82323    1.000
    O16      O        0.32940    0.36680    0.72470    1.000
    Mn5      Mn       0.01295    0.94586    0.77741    1.000
    Mn6      Mn       0.93336    0.79270    0.63094    1.000
    C53      C        0.83450    0.98970    0.66180    1.000
    C54      C        0.76720    0.07110    0.63290    1.000
    C55      C        0.71460    0.12570    0.67890    1.000
    H29      H        0.71860    0.11070    0.72820    1.000
    C56      C        0.65650    0.20210    0.65170    1.000
    C57      C        0.65410    0.22620    0.57840    1.000
    H30      H        0.61570    0.27860    0.56060    1.000
    C58      C        0.70780    0.17340    0.53090    1.000
    C59      C        0.76150    0.09400    0.55970    1.000
    H31      H        0.79450    0.05510    0.52880    1.000
    C60      C        0.59680    0.26250    0.69980    1.000
    C61      C        0.71640    0.26180    0.30830    1.000
    H32      H        0.71650    0.27920    0.25970    1.000
    C62      C        0.77690    0.18880    0.33670    1.000
    C63      C        0.77500    0.16030    0.40850    1.000
    H33      H        0.81800    0.11170    0.42750    1.000
    C64      C        0.70900    0.20390    0.45270    1.000
    C65      C        0.65220    0.28000    0.42410    1.000
    H34      H        0.61080    0.31220    0.45350    1.000
    C66      C        0.65400    0.31060    0.35250    1.000
    C67      C        0.59850    0.39810    0.32500    1.000
    C68      C        0.85080    0.14390    0.29140    1.000
    C69      C        0.06300    0.59650    0.66300    1.000
    H35      H        0.04640    0.60460    0.71020    1.000
    C70      C        0.12040    0.51750    0.64950    1.000
    H36      H        0.14310    0.47510    0.68660    1.000
    C71      C        0.14240    0.50370    0.58160    1.000
    H37      H        0.17870    0.44960    0.57020    1.000
    C72      C        0.11180    0.56850    0.52940    1.000
    H38      H        0.12820    0.55980    0.48220    1.000
    C73      C        0.05650    0.64720    0.54600    1.000
    C74      C        0.02390    0.72240    0.49280    1.000
    C75      C        0.03750    0.71540    0.41780    1.000
    H39      H        0.06690    0.66160    0.39890    1.000
    C76      C        0.00450    0.79320    0.37380    1.000
    H40      H        0.01100    0.79090    0.32420    1.000
    C77      C        0.96240    0.87350    0.40210    1.000
    H41      H        0.94190    0.92560    0.37260    1.000
    C78      C        0.95180    0.87450    0.47450    1.000
    H42      H        0.92300    0.92850    0.49360    1.000
    N5       N        0.02980    0.66180    0.61430    1.000
    N6       N        0.97950    0.80430    0.51840    1.000
    O17      O        0.84990    0.92350    0.61858    1.000
    O18      O        0.87200    0.99470    0.72797    1.000
    O19      O        0.60030    0.24030    0.76534    1.000
    O20      O        0.54810    0.33140    0.66993    1.000
    O21      O        0.55500    0.45020    0.36761    1.000
    O22      O        0.59670    0.41960    0.25871    1.000
    O23      O        0.93790    0.11760    0.32323    1.000
    O24      O        0.82940    0.13320    0.22470    1.000
    Mn7      Mn       0.48705    0.44586    0.72259    1.000
    Mn8      Mn       0.56664    0.29270    0.86906    1.000
    C79      C        0.66550    0.48970    0.83820    1.000
    C80      C        0.73280    0.57110    0.86710    1.000
    C81      C        0.78540    0.62570    0.82110    1.000
    H43      H        0.78140    0.61070    0.77180    1.000
    C82      C        0.84350    0.70210    0.84830    1.000
    C83      C        0.84590    0.72620    0.92160    1.000
    H44      H        0.88430    0.77860    0.93940    1.000
    C84      C        0.79220    0.67340    0.96910    1.000
    C85      C        0.73850    0.59400    0.94030    1.000
    H45      H        0.70550    0.55510    0.97120    1.000
    C86      C        0.90320    0.76250    0.80020    1.000
    C87      C        0.78360    0.76180    0.19170    1.000
    H46      H        0.78350    0.77920    0.24030    1.000
    C88      C        0.72310    0.68880    0.16330    1.000
    C89      C        0.72500    0.66030    0.09150    1.000
    H47      H        0.68200    0.61170    0.07250    1.000
    C90      C        0.79100    0.70390    0.04730    1.000
    C91      C        0.84780    0.78000    0.07590    1.000
    H48      H        0.88920    0.81220    0.04650    1.000
    C92      C        0.84600    0.81060    0.14750    1.000
    C93      C        0.90150    0.89810    0.17500    1.000
    C94      C        0.64920    0.64390    0.20860    1.000
    C95      C        0.43700    0.09650    0.83700    1.000
    H49      H        0.45360    0.10460    0.78980    1.000
    C96      C        0.37960    0.01750    0.85050    1.000
    H50      H        0.35690    0.97510    0.81340    1.000
    C97      C        0.35760    0.00370    0.91840    1.000
    H51      H        0.32130    0.94960    0.92980    1.000
    C98      C        0.38820    0.06850    0.97060    1.000
    H52      H        0.37180    0.05980    0.01780    1.000
    C99      C        0.44350    0.14720    0.95400    1.000
    C100     C        0.47610    0.22240    0.00720    1.000
    C101     C        0.46250    0.21540    0.08220    1.000
    H53      H        0.43310    0.16160    0.10110    1.000
    C102     C        0.49550    0.29320    0.12620    1.000
    H54      H        0.48900    0.29090    0.17580    1.000
    C103     C        0.53760    0.37350    0.09790    1.000
    H55      H        0.55810    0.42560    0.12740    1.000
    C104     C        0.54820    0.37450    0.02550    1.000
    H56      H        0.57700    0.42850    0.00640    1.000
    N7       N        0.47020    0.16180    0.88570    1.000
    N8       N        0.52050    0.30430    0.98160    1.000
    O25      O        0.65010    0.42350    0.88142    1.000
    O26      O        0.62800    0.49470    0.77203    1.000
    O27      O        0.89970    0.74030    0.73466    1.000
    O28      O        0.95190    0.83140    0.83007    1.000
    O29      O        0.94500    0.95020    0.13239    1.000
    O30      O        0.90330    0.91960    0.24129    1.000
    O31      O        0.56210    0.61760    0.17677    1.000
    O32      O        0.67060    0.63320    0.27530    1.000
