# CIF file generated by openbabel 3.1.0, see https://openbabel.org
data_I
_chemical_name_common 'image0'
_cell_length_a 20.775
_cell_length_b 19.479
_cell_length_c 5.952
_cell_angle_alpha 90
_cell_angle_beta 114.1
_cell_angle_gamma 90
_space_group_name_H-M_alt 'P 1'
_space_group_name_Hall 'P 1'
loop_
    _symmetry_equiv_pos_as_xyz
    x,y,z
loop_
    _atom_site_label
    _atom_site_type_symbol
    _atom_site_fract_x
    _atom_site_fract_y
    _atom_site_fract_z
    _atom_site_occupancy
    N1       N        0.60800    0.04610    0.15300    1.000
    H1       H        0.62070    0.06060    0.30910    1.000
    H2       H        0.64040    0.01650    0.14690    1.000
    N2       N        0.65400    0.20360    0.87900    1.000
    H3       H        0.62090    0.23280    0.88610    1.000
    H4       H        0.63980    0.18920    0.72210    1.000
    N3       N        0.85360    0.19930    0.64100    1.000
    H5       H        0.88760    0.22800    0.64220    1.000
    H6       H        0.86520    0.18260    0.79400    1.000
    N4       N        0.90300    0.05250    0.38300    1.000
    H7       H        0.89050    0.06960    0.23070    1.000
    H8       H        0.86850    0.02370    0.38040    1.000
    C1       C        0.59670    0.10320    0.98400    1.000
    H9       H        0.55990    0.13270    0.99030    1.000
    H10      H        0.58110    0.08570    0.81730    1.000
    C2       C        0.66320    0.14440    0.04700    1.000
    H11      H        0.67900    0.16130    0.21420    1.000
    H12      H        0.69980    0.11470    0.03950    1.000
    C3       C        0.84120    0.14420    0.46300    1.000
    H13      H        0.82910    0.16220    0.29850    1.000
    H14      H        0.80430    0.11350    0.46080    1.000
    C4       C        0.91210    0.10900    0.56100    1.000
    H15      H        0.94890    0.14030    0.56620    1.000
    H16      H        0.92380    0.09110    0.72550    1.000
    N5       N        0.10800    0.54610    0.15300    1.000
    H17      H        0.12070    0.56060    0.30910    1.000
    H18      H        0.14040    0.51650    0.14690    1.000
    N6       N        0.15400    0.70360    0.87900    1.000
    H19      H        0.12090    0.73280    0.88610    1.000
    H20      H        0.13980    0.68920    0.72210    1.000
    N7       N        0.35360    0.69930    0.64100    1.000
    H21      H        0.38760    0.72800    0.64220    1.000
    H22      H        0.36520    0.68260    0.79400    1.000
    N8       N        0.40300    0.55250    0.38300    1.000
    H23      H        0.39050    0.56960    0.23070    1.000
    H24      H        0.36850    0.52370    0.38040    1.000
    C5       C        0.09670    0.60320    0.98400    1.000
    H25      H        0.05990    0.63270    0.99030    1.000
    H26      H        0.08110    0.58570    0.81730    1.000
    C6       C        0.16320    0.64440    0.04700    1.000
    H27      H        0.17900    0.66130    0.21420    1.000
    H28      H        0.19980    0.61470    0.03950    1.000
    C7       C        0.34120    0.64420    0.46300    1.000
    H29      H        0.32910    0.66220    0.29850    1.000
    H30      H        0.30430    0.61350    0.46080    1.000
    C8       C        0.41210    0.60900    0.56100    1.000
    H31      H        0.44890    0.64030    0.56620    1.000
    H32      H        0.42380    0.59110    0.72550    1.000
    N9       N        0.39200    0.04610    0.34700    1.000
    H33      H        0.37930    0.06060    0.19090    1.000
    H34      H        0.35960    0.01650    0.35310    1.000
    N10      N        0.34600    0.20360    0.62100    1.000
    H35      H        0.37910    0.23280    0.61390    1.000
    H36      H        0.36020    0.18920    0.77790    1.000
    N11      N        0.14640    0.19930    0.85900    1.000
    H37      H        0.11240    0.22800    0.85780    1.000
    H38      H        0.13480    0.18260    0.70600    1.000
    N12      N        0.09700    0.05250    0.11700    1.000
    H39      H        0.10950    0.06960    0.26930    1.000
    H40      H        0.13150    0.02370    0.11960    1.000
    C9       C        0.40330    0.10320    0.51600    1.000
    H41      H        0.44010    0.13270    0.50970    1.000
    H42      H        0.41890    0.08570    0.68270    1.000
    C10      C        0.33680    0.14440    0.45300    1.000
    H43      H        0.32100    0.16130    0.28580    1.000
    H44      H        0.30020    0.11470    0.46050    1.000
    C11      C        0.15880    0.14420    0.03700    1.000
    H45      H        0.17090    0.16220    0.20150    1.000
    H46      H        0.19570    0.11350    0.03920    1.000
    C12      C        0.08790    0.10900    0.93900    1.000
    H47      H        0.05110    0.14030    0.93380    1.000
    H48      H        0.07620    0.09110    0.77450    1.000
    N13      N        0.89200    0.54610    0.34700    1.000
    H49      H        0.87930    0.56060    0.19090    1.000
    H50      H        0.85960    0.51650    0.35310    1.000
    N14      N        0.84600    0.70360    0.62100    1.000
    H51      H        0.87910    0.73280    0.61390    1.000
    H52      H        0.86020    0.68920    0.77790    1.000
    N15      N        0.64640    0.69930    0.85900    1.000
    H53      H        0.61240    0.72800    0.85780    1.000
    H54      H        0.63480    0.68260    0.70600    1.000
    N16      N        0.59700    0.55250    0.11700    1.000
    H55      H        0.60950    0.56960    0.26930    1.000
    H56      H        0.63150    0.52370    0.11960    1.000
    C13      C        0.90330    0.60320    0.51600    1.000
    H57      H        0.94010    0.63270    0.50970    1.000
    H58      H        0.91890    0.58570    0.68270    1.000
    C14      C        0.83680    0.64440    0.45300    1.000
    H59      H        0.82100    0.66130    0.28580    1.000
    H60      H        0.80020    0.61470    0.46050    1.000
    C15      C        0.65880    0.64420    0.03700    1.000
    H61      H        0.67090    0.66220    0.20150    1.000
    H62      H        0.69570    0.61350    0.03920    1.000
    C16      C        0.58790    0.60900    0.93900    1.000
    H63      H        0.55110    0.64030    0.93380    1.000
    H64      H        0.57620    0.59110    0.77450    1.000
    N17      N        0.39200    0.95390    0.84700    1.000
    H65      H        0.37930    0.93940    0.69090    1.000
    H66      H        0.35960    0.98350    0.85310    1.000
    N18      N        0.34600    0.79640    0.12100    1.000
    H67      H        0.37910    0.76720    0.11390    1.000
    H68      H        0.36020    0.81080    0.27790    1.000
    N19      N        0.14640    0.80070    0.35900    1.000
    H69      H        0.11240    0.77200    0.35780    1.000
    H70      H        0.13480    0.81740    0.20600    1.000
    N20      N        0.09700    0.94750    0.61700    1.000
    H71      H        0.10950    0.93040    0.76930    1.000
    H72      H        0.13150    0.97630    0.61960    1.000
    C17      C        0.40330    0.89680    0.01600    1.000
    H73      H        0.44010    0.86730    0.00970    1.000
    H74      H        0.41890    0.91430    0.18270    1.000
    C18      C        0.33680    0.85560    0.95300    1.000
    H75      H        0.32100    0.83870    0.78580    1.000
    H76      H        0.30020    0.88530    0.96050    1.000
    C19      C        0.15880    0.85580    0.53700    1.000
    H77      H        0.17090    0.83780    0.70150    1.000
    H78      H        0.19570    0.88650    0.53920    1.000
    C20      C        0.08790    0.89100    0.43900    1.000
    H79      H        0.05110    0.85970    0.43380    1.000
    H80      H        0.07620    0.90890    0.27450    1.000
    N21      N        0.89200    0.45390    0.84700    1.000
    H81      H        0.87930    0.43940    0.69090    1.000
    H82      H        0.85960    0.48350    0.85310    1.000
    N22      N        0.84600    0.29640    0.12100    1.000
    H83      H        0.87910    0.26720    0.11390    1.000
    H84      H        0.86020    0.31080    0.27790    1.000
    N23      N        0.64640    0.30070    0.35900    1.000
    H85      H        0.61240    0.27200    0.35780    1.000
    H86      H        0.63480    0.31740    0.20600    1.000
    N24      N        0.59700    0.44750    0.61700    1.000
    H87      H        0.60950    0.43040    0.76930    1.000
    H88      H        0.63150    0.47630    0.61960    1.000
    C21      C        0.90330    0.39680    0.01600    1.000
    H89      H        0.94010    0.36730    0.00970    1.000
    H90      H        0.91890    0.41430    0.18270    1.000
    C22      C        0.83680    0.35560    0.95300    1.000
    H91      H        0.82100    0.33870    0.78580    1.000
    H92      H        0.80020    0.38530    0.96050    1.000
    C23      C        0.65880    0.35580    0.53700    1.000
    H93      H        0.67090    0.33780    0.70150    1.000
    H94      H        0.69570    0.38650    0.53920    1.000
    C24      C        0.58790    0.39100    0.43900    1.000
    H95      H        0.55110    0.35970    0.43380    1.000
    H96      H        0.57620    0.40890    0.27450    1.000
    N25      N        0.60800    0.95390    0.65300    1.000
    H97      H        0.62070    0.93940    0.80910    1.000
    H98      H        0.64040    0.98350    0.64690    1.000
    N26      N        0.65400    0.79640    0.37900    1.000
    H99      H        0.62090    0.76720    0.38610    1.000
    H100     H        0.63980    0.81080    0.22210    1.000
    N27      N        0.85360    0.80070    0.14100    1.000
    H101     H        0.88760    0.77200    0.14220    1.000
    H102     H        0.86520    0.81740    0.29400    1.000
    N28      N        0.90300    0.94750    0.88300    1.000
    H103     H        0.89050    0.93040    0.73070    1.000
    H104     H        0.86850    0.97630    0.88040    1.000
    C25      C        0.59670    0.89680    0.48400    1.000
    H105     H        0.55990    0.86730    0.49030    1.000
    H106     H        0.58110    0.91430    0.31730    1.000
    C26      C        0.66320    0.85560    0.54700    1.000
    H107     H        0.67900    0.83870    0.71420    1.000
    H108     H        0.69980    0.88530    0.53950    1.000
    C27      C        0.84120    0.85580    0.96300    1.000
    H109     H        0.82910    0.83780    0.79850    1.000
    H110     H        0.80430    0.88650    0.96080    1.000
    C28      C        0.91210    0.89100    0.06100    1.000
    H111     H        0.94890    0.85970    0.06620    1.000
    H112     H        0.92380    0.90890    0.22550    1.000
    N29      N        0.10800    0.45390    0.65300    1.000
    H113     H        0.12070    0.43940    0.80910    1.000
    H114     H        0.14040    0.48350    0.64690    1.000
    N30      N        0.15400    0.29640    0.37900    1.000
    H115     H        0.12090    0.26720    0.38610    1.000
    H116     H        0.13980    0.31080    0.22210    1.000
    N31      N        0.35360    0.30070    0.14100    1.000
    H117     H        0.38760    0.27200    0.14220    1.000
    H118     H        0.36520    0.31740    0.29400    1.000
    N32      N        0.40300    0.44750    0.88300    1.000
    H119     H        0.39050    0.43040    0.73070    1.000
    H120     H        0.36850    0.47630    0.88040    1.000
    C29      C        0.09670    0.39680    0.48400    1.000
    H121     H        0.05990    0.36730    0.49030    1.000
    H122     H        0.08110    0.41430    0.31730    1.000
    C30      C        0.16320    0.35560    0.54700    1.000
    H123     H        0.17900    0.33870    0.71420    1.000
    H124     H        0.19980    0.38530    0.53950    1.000
    C31      C        0.34120    0.35580    0.96300    1.000
    H125     H        0.32910    0.33780    0.79850    1.000
    H126     H        0.30430    0.38650    0.96080    1.000
    C32      C        0.41210    0.39100    0.06100    1.000
    H127     H        0.44890    0.35970    0.06620    1.000
    H128     H        0.42380    0.40890    0.22550    1.000
    Ag1      Ag       0.50000    0.00000    0.00000    1.000
    Ag2      Ag       0.00000    0.50000    0.00000    1.000
    Ag3      Ag       0.50000    0.00000    0.50000    1.000
    Ag4      Ag       0.00000    0.50000    0.50000    1.000
    Ag5      Ag       0.75000    0.25000    0.00000    1.000
    Ag6      Ag       0.25000    0.25000    0.50000    1.000
    Ag7      Ag       0.25000    0.75000    0.00000    1.000
    Ag8      Ag       0.75000    0.75000    0.50000    1.000
    Ag9      Ag       0.75000    0.25000    0.50000    1.000
    Ag10     Ag       0.25000    0.25000    0.00000    1.000
    Ag11     Ag       0.25000    0.75000    0.50000    1.000
    Ag12     Ag       0.75000    0.75000    0.00000    1.000
    Ag13     Ag       0.00000    0.00000    0.50000    1.000
    Ag14     Ag       0.50000    0.50000    0.50000    1.000
    Ag15     Ag       0.00000    0.00000    0.00000    1.000
    Ag16     Ag       0.50000    0.50000    0.00000    1.000
