# CIF file generated by openbabel 3.1.0, see https://openbabel.org
data_I
_chemical_name_common 'QUTTII_clean'
_cell_length_a 7.452
_cell_length_b 14.586
_cell_length_c 16.472
_cell_angle_alpha 90
_cell_angle_beta 90
_cell_angle_gamma 95.46
_space_group_name_H-M_alt 'P 1'
_space_group_name_Hall 'P 1'
loop_
    _symmetry_equiv_pos_as_xyz
    x,y,z
loop_
    _atom_site_label
    _atom_site_type_symbol
    _atom_site_fract_x
    _atom_site_fract_y
    _atom_site_fract_z
    _atom_site_occupancy
    Co1      Co       0.20900    0.67611    0.48647    1.000
    Co2      Co       0.18871    0.47251    0.37216    1.000
    Co3      Co       0.29100    0.82389    0.98647    1.000
    Co4      Co       0.31129    0.02749    0.87216    1.000
    Co5      Co       0.79100    0.32389    0.51353    1.000
    Co6      Co       0.81129    0.52749    0.62784    1.000
    Co7      Co       0.70900    0.17611    0.01353    1.000
    Co8      Co       0.68871    0.97251    0.12784    1.000
    Co9      Co       0.50000    0.50000    0.50000    1.000
    Co10     Co       0.00000    0.00000    0.00000    1.000
    H1       H        0.83700    0.49020    0.47590    1.000
    H2       H        0.43210    0.66960    0.20510    1.000
    H3       H        0.05050    0.72590    0.22500    1.000
    H4       H        0.66300    0.00980    0.97590    1.000
    H5       H        0.06790    0.83040    0.70510    1.000
    H6       H        0.44950    0.77410    0.72500    1.000
    H7       H        0.16300    0.50980    0.52410    1.000
    H8       H        0.56790    0.33040    0.79490    1.000
    H9       H        0.94950    0.27410    0.77500    1.000
    H10      H        0.33700    0.99020    0.02410    1.000
    H11      H        0.93210    0.16960    0.29490    1.000
    H12      H        0.55050    0.22590    0.27500    1.000
    C1       C        0.83270    0.66320    0.28050    1.000
    C2       C        0.64670    0.64580    0.27560    1.000
    C3       C        0.55610    0.68330    0.21010    1.000
    C4       C        0.64740    0.74020    0.15270    1.000
    C5       C        0.83550    0.75600    0.15870    1.000
    C6       C        0.92550    0.71630    0.22210    1.000
    C7       C        0.94370    0.62580    0.34660    1.000
    C8       C        0.53210    0.59160    0.33720    1.000
    C9       C        0.53050    0.77850    0.08870    1.000
    C10      C        0.95140    0.81680    0.10190    1.000
    C11      C        0.66730    0.83680    0.78050    1.000
    C12      C        0.85330    0.85420    0.77560    1.000
    C13      C        0.94390    0.81670    0.71010    1.000
    C14      C        0.85260    0.75980    0.65270    1.000
    C15      C        0.66450    0.74400    0.65870    1.000
    C16      C        0.57450    0.78370    0.72210    1.000
    C17      C        0.55630    0.87420    0.84660    1.000
    C18      C        0.96790    0.90840    0.83720    1.000
    C19      C        0.96950    0.72150    0.58870    1.000
    C20      C        0.54860    0.68320    0.60190    1.000
    C21      C        0.16730    0.33680    0.71950    1.000
    C22      C        0.35330    0.35420    0.72440    1.000
    C23      C        0.44390    0.31670    0.78990    1.000
    C24      C        0.35260    0.25980    0.84730    1.000
    C25      C        0.16450    0.24400    0.84130    1.000
    C26      C        0.07450    0.28370    0.77790    1.000
    C27      C        0.05630    0.37420    0.65340    1.000
    C28      C        0.46790    0.40840    0.66280    1.000
    C29      C        0.46950    0.22150    0.91130    1.000
    C30      C        0.04860    0.18320    0.89810    1.000
    C31      C        0.33270    0.16320    0.21950    1.000
    C32      C        0.14670    0.14580    0.22440    1.000
    C33      C        0.05610    0.18330    0.28990    1.000
    C34      C        0.14740    0.24020    0.34730    1.000
    C35      C        0.33550    0.25600    0.34130    1.000
    C36      C        0.42550    0.21630    0.27790    1.000
    C37      C        0.44370    0.12580    0.15340    1.000
    C38      C        0.03210    0.09160    0.16280    1.000
    C39      C        0.03050    0.27850    0.41130    1.000
    C40      C        0.45140    0.31680    0.39810    1.000
    O1       O        0.96220    0.53940    0.34350    1.000
    O2       O        0.01420    0.67980    0.39670    1.000
    O3       O        0.37370    0.56200    0.31760    1.000
    O4       O        0.60290    0.58210    0.40560    1.000
    O5       O        0.52030    0.86320    0.08270    1.000
    O6       O        0.43290    0.72320    0.04690    1.000
    O7       O        0.09390    0.78850    0.07580    1.000
    O8       O        0.89970    0.89640    0.08430    1.000
    O9       O        0.75800    0.45930    0.51720    1.000
    O10      O        0.53780    0.96060    0.84350    1.000
    O11      O        0.48580    0.82020    0.89670    1.000
    O12      O        0.12630    0.93800    0.81760    1.000
    O13      O        0.89710    0.91790    0.90560    1.000
    O14      O        0.97970    0.63680    0.58270    1.000
    O15      O        0.06710    0.77680    0.54690    1.000
    O16      O        0.40610    0.71150    0.57580    1.000
    O17      O        0.60030    0.60360    0.58430    1.000
    O18      O        0.74200    0.04070    0.01720    1.000
    O19      O        0.03780    0.46060    0.65650    1.000
    O20      O        0.98580    0.32020    0.60330    1.000
    O21      O        0.62630    0.43800    0.68240    1.000
    O22      O        0.39710    0.41790    0.59440    1.000
    O23      O        0.47970    0.13680    0.91730    1.000
    O24      O        0.56710    0.27680    0.95310    1.000
    O25      O        0.90610    0.21150    0.92420    1.000
    O26      O        0.10030    0.10360    0.91570    1.000
    O27      O        0.24200    0.54070    0.48280    1.000
    O28      O        0.46220    0.03940    0.15650    1.000
    O29      O        0.51420    0.17980    0.10330    1.000
    O30      O        0.87370    0.06200    0.18240    1.000
    O31      O        0.10290    0.08210    0.09440    1.000
    O32      O        0.02030    0.36320    0.41730    1.000
    O33      O        0.93290    0.22320    0.45310    1.000
    O34      O        0.59390    0.28850    0.42420    1.000
    O35      O        0.39970    0.39640    0.41570    1.000
    O36      O        0.25800    0.95930    0.98280    1.000
