# CIF file generated by openbabel 3.1.0, see https://openbabel.org
data_I
_chemical_name_common 'IPIJUM_clean'
_cell_length_a 10.4005
_cell_length_b 10.6486
_cell_length_c 13.6321
_cell_angle_alpha 105.307
_cell_angle_beta 93.835
_cell_angle_gamma 108.935
_space_group_name_H-M_alt 'P 1'
_space_group_name_Hall 'P 1'
loop_
    _symmetry_equiv_pos_as_xyz
    x,y,z
loop_
    _atom_site_label
    _atom_site_type_symbol
    _atom_site_fract_x
    _atom_site_fract_y
    _atom_site_fract_z
    _atom_site_occupancy
    Er1      Er       0.47639    0.41994    0.81192    1.000
    Er2      Er       0.01863    0.05028    0.18658    1.000
    Er3      Er       0.52361    0.58006    0.18808    1.000
    Er4      Er       0.98137    0.94972    0.81342    1.000
    H1       H        0.68710    0.17690    0.11030    1.000
    H2       H        0.79810    0.31460    0.91840    1.000
    H3       H        0.09960    0.23760    0.57120    1.000
    H4       H        0.31290    0.82310    0.88970    1.000
    H5       H        0.20190    0.68540    0.08160    1.000
    H6       H        0.90040    0.76240    0.42880    1.000
    C1       C        0.52020    0.89120    0.92730    1.000
    C2       C        0.63320    0.99880    0.99440    1.000
    C3       C        0.61190    0.10550    0.06580    1.000
    C4       C        0.53060    0.76600    0.84920    1.000
    C5       C        0.77690    0.00040    0.99040    1.000
    C6       C        0.99430    0.62720    0.05820    1.000
    C7       C        0.87220    0.51330    0.00890    1.000
    C8       C        0.87910    0.38890    0.95130    1.000
    C9       C        0.99030    0.76840    0.10960    1.000
    C10      C        0.73290    0.52170    0.02620    1.000
    C11      C        0.09380    0.05660    0.59250    1.000
    C12      C        0.05900    0.14150    0.54240    1.000
    C13      C        0.03450    0.91130    0.54960    1.000
    C14      C        0.19780    0.12610    0.68960    1.000
    C15      C        0.06620    0.80770    0.59480    1.000
    C16      C        0.47980    0.10880    0.07270    1.000
    C17      C        0.36680    0.00120    0.00560    1.000
    C18      C        0.38810    0.89450    0.93420    1.000
    C19      C        0.46940    0.23400    0.15080    1.000
    C20      C        0.22310    0.99960    0.00960    1.000
    C21      C        0.00570    0.37280    0.94180    1.000
    C22      C        0.12780    0.48670    0.99110    1.000
    C23      C        0.12090    0.61110    0.04870    1.000
    C24      C        0.00970    0.23160    0.89040    1.000
    C25      C        0.26710    0.47830    0.97380    1.000
    C26      C        0.90620    0.94340    0.40750    1.000
    C27      C        0.94100    0.85850    0.45760    1.000
    C28      C        0.96550    0.08870    0.45040    1.000
    C29      C        0.80220    0.87390    0.31040    1.000
    C30      C        0.93380    0.19230    0.40520    1.000
    O1       O        0.86100    0.06160    0.07360    1.000
    O2       O        0.80470    0.94450    0.90640    1.000
    O3       O        0.53900    0.66910    0.88300    1.000
    O4       O        0.51950    0.76330    0.75680    1.000
    O5       O        0.64400    0.49010    0.94870    1.000
    O6       O        0.71440    0.55450    0.11720    1.000
    O7       O        0.92210    0.81680    0.05960    1.000
    O8       O        0.06110    0.84090    0.19710    1.000
    O9       O        0.17990    0.07630    0.76360    1.000
    O10      O        0.29800    0.23260    0.69230    1.000
    O11      O        0.03240    0.79890    0.68000    1.000
    O12      O        0.11660    0.73010    0.53930    1.000
    O13      O        0.13900    0.93840    0.92640    1.000
    O14      O        0.19530    0.05550    0.09360    1.000
    O15      O        0.46100    0.33090    0.11700    1.000
    O16      O        0.48050    0.23670    0.24320    1.000
    O17      O        0.35600    0.50990    0.05130    1.000
    O18      O        0.28560    0.44550    0.88280    1.000
    O19      O        0.07790    0.18320    0.94040    1.000
    O20      O        0.93890    0.15910    0.80290    1.000
    O21      O        0.82010    0.92370    0.23640    1.000
    O22      O        0.70200    0.76740    0.30770    1.000
    O23      O        0.96760    0.20110    0.32000    1.000
    O24      O        0.88340    0.26990    0.46070    1.000
