# CIF file generated by openbabel 3.1.0, see https://openbabel.org
data_I
_chemical_name_common 'MICNOC_clean'
_cell_length_a 13.1523
_cell_length_b 13.1523
_cell_length_c 16.5765
_cell_angle_alpha 111.191
_cell_angle_beta 111.191
_cell_angle_gamma 94.1804
_space_group_name_H-M_alt 'P 1'
_space_group_name_Hall 'P 1'
loop_
    _symmetry_equiv_pos_as_xyz
    x,y,z
loop_
    _atom_site_label
    _atom_site_type_symbol
    _atom_site_fract_x
    _atom_site_fract_y
    _atom_site_fract_z
    _atom_site_occupancy
    Cd1      Cd       0.12363    0.87637    0.25000    1.000
    Cd2      Cd       0.87637    0.12363    0.75000    1.000
    H1       H        0.92870    0.95230    0.31440    1.000
    H2       H        0.23470    0.13890    0.42670    1.000
    H3       H        0.87580    0.09580    0.40970    1.000
    H4       H        0.18840    0.28480    0.52500    1.000
    H5       H        0.35300    0.81780    0.23180    1.000
    H6       H        0.04590    0.71870    0.02750    1.000
    H7       H        0.42180    0.72520    0.12460    1.000
    H8       H        0.11170    0.62150    0.91580    1.000
    H9       H        0.34060    0.65460    0.91130    1.000
    H10      H        0.25030    0.53810    0.87250    1.000
    H11      H        0.04050    0.31950    0.60230    1.000
    H12      H        0.92150    0.27070    0.52990    1.000
    H13      H        0.04770    0.07130    0.18560    1.000
    H14      H        0.86110    0.76530    0.07330    1.000
    H15      H        0.90420    0.12420    0.09030    1.000
    H16      H        0.71520    0.81160    0.97500    1.000
    H17      H        0.18220    0.64700    0.26820    1.000
    H18      H        0.28130    0.95410    0.47250    1.000
    H19      H        0.27480    0.57820    0.37540    1.000
    H20      H        0.37850    0.88830    0.58420    1.000
    H21      H        0.34540    0.65940    0.58870    1.000
    H22      H        0.46190    0.74970    0.62750    1.000
    H23      H        0.68050    0.95950    0.89770    1.000
    H24      H        0.72930    0.07850    0.97010    1.000
    H25      H        0.07130    0.04770    0.68560    1.000
    H26      H        0.76530    0.86110    0.57330    1.000
    H27      H        0.12420    0.90420    0.59030    1.000
    H28      H        0.81160    0.71520    0.47500    1.000
    H29      H        0.64700    0.18220    0.76820    1.000
    H30      H        0.95410    0.28130    0.97250    1.000
    H31      H        0.57820    0.27480    0.87540    1.000
    H32      H        0.88830    0.37850    0.08420    1.000
    H33      H        0.65940    0.34540    0.08870    1.000
    H34      H        0.74970    0.46190    0.12750    1.000
    H35      H        0.95950    0.68050    0.39770    1.000
    H36      H        0.07850    0.72930    0.47010    1.000
    H37      H        0.95230    0.92870    0.81440    1.000
    H38      H        0.13890    0.23470    0.92670    1.000
    H39      H        0.09580    0.87580    0.90970    1.000
    H40      H        0.28480    0.18840    0.02500    1.000
    H41      H        0.81780    0.35300    0.73180    1.000
    H42      H        0.71870    0.04590    0.52750    1.000
    H43      H        0.72520    0.42180    0.62460    1.000
    H44      H        0.62150    0.11170    0.41580    1.000
    H45      H        0.65460    0.34060    0.41130    1.000
    H46      H        0.53810    0.25030    0.37250    1.000
    H47      H        0.31950    0.04050    0.10230    1.000
    H48      H        0.27070    0.92150    0.02990    1.000
    C1       C        0.30149    0.77903    0.16415    1.000
    C2       C        0.12436    0.72118    0.04636    1.000
    C3       C        0.34538    0.72420    0.10063    1.000
    C4       C        0.16174    0.66404    0.97858    1.000
    C5       C        0.27411    0.66437    0.00499    1.000
    C6       C        0.31500    0.60144    0.93042    1.000
    C7       C        0.41004    0.54966    0.96641    1.000
    C8       C        0.39181    0.44423    0.96524    1.000
    C9       C        0.47862    0.39646    0.99743    1.000
    C10      C        0.98343    0.02017    0.35850    1.000
    C11      C        0.16091    0.12769    0.42350    1.000
    C12      C        0.95012    0.10528    0.41400    1.000
    C13      C        0.13369    0.21671    0.48180    1.000
    C14      C        0.02947    0.20497    0.47598    1.000
    C15      C        0.99492    0.29890    0.53834    1.000
    C16      C        0.99859    0.40221    0.51847    1.000
    C17      C        0.91397    0.40829    0.44233    1.000
    C18      C        0.91437    0.50281    0.42436    1.000
    C19      C        0.22097    0.69851    0.33585    1.000
    C20      C        0.27882    0.87564    0.45364    1.000
    C21      C        0.27580    0.65462    0.39937    1.000
    C22      C        0.33596    0.83826    0.52142    1.000
    C23      C        0.33563    0.72589    0.49501    1.000
    C24      C        0.39856    0.68500    0.56958    1.000
    C25      C        0.45034    0.58996    0.53359    1.000
    C26      C        0.55577    0.60819    0.53476    1.000
    C27      C        0.60354    0.52138    0.50257    1.000
    C28      C        0.97983    0.01657    0.14150    1.000
    C29      C        0.87231    0.83909    0.07650    1.000
    C30      C        0.89472    0.04988    0.08600    1.000
    C31      C        0.78329    0.86631    0.01820    1.000
    C32      C        0.79503    0.97053    0.02402    1.000
    C33      C        0.70110    0.00508    0.96166    1.000
    C34      C        0.59779    0.00141    0.98153    1.000
    C35      C        0.59171    0.08603    0.05767    1.000
    C36      C        0.49719    0.08563    0.07564    1.000
    C37      C        0.69851    0.22097    0.83585    1.000
    C38      C        0.87564    0.27882    0.95364    1.000
    C39      C        0.65462    0.27580    0.89937    1.000
    C40      C        0.83826    0.33596    0.02142    1.000
    C41      C        0.72589    0.33563    0.99501    1.000
    C42      C        0.68500    0.39856    0.06958    1.000
    C43      C        0.58996    0.45034    0.03359    1.000
    C44      C        0.60819    0.55577    0.03476    1.000
    C45      C        0.52138    0.60354    0.00257    1.000
    C46      C        0.01657    0.97983    0.64150    1.000
    C47      C        0.83909    0.87231    0.57650    1.000
    C48      C        0.04988    0.89472    0.58600    1.000
    C49      C        0.86631    0.78329    0.51820    1.000
    C50      C        0.97053    0.79503    0.52402    1.000
    C51      C        0.00508    0.70110    0.46166    1.000
    C52      C        0.00141    0.59779    0.48153    1.000
    C53      C        0.08603    0.59171    0.55767    1.000
    C54      C        0.08563    0.49719    0.57564    1.000
    C55      C        0.77903    0.30149    0.66415    1.000
    C56      C        0.72118    0.12436    0.54636    1.000
    C57      C        0.72420    0.34538    0.60063    1.000
    C58      C        0.66404    0.16174    0.47858    1.000
    C59      C        0.66437    0.27411    0.50499    1.000
    C60      C        0.60144    0.31500    0.43042    1.000
    C61      C        0.54966    0.41004    0.46641    1.000
    C62      C        0.44423    0.39181    0.46524    1.000
    C63      C        0.39646    0.47862    0.49743    1.000
    C64      C        0.02017    0.98343    0.85850    1.000
    C65      C        0.12769    0.16091    0.92350    1.000
    C66      C        0.10528    0.95012    0.91400    1.000
    C67      C        0.21671    0.13369    0.98180    1.000
    C68      C        0.20497    0.02947    0.97598    1.000
    C69      C        0.29890    0.99492    0.03834    1.000
    C70      C        0.40221    0.99859    0.01847    1.000
    C71      C        0.40829    0.91397    0.94233    1.000
    C72      C        0.50281    0.91437    0.92436    1.000
    N1       N        0.19245    0.77825    0.13847    1.000
    N2       N        0.09104    0.02666    0.36280    1.000
    N3       N        0.22175    0.80755    0.36153    1.000
    N4       N        0.97334    0.90896    0.13720    1.000
    N5       N        0.80755    0.22175    0.86153    1.000
    N6       N        0.90896    0.97334    0.63720    1.000
    N7       N        0.77825    0.19245    0.63847    1.000
    N8       N        0.02666    0.09104    0.86280    1.000
    F1       F        0.28577    0.38683    0.93187    1.000
    F2       F        0.45374    0.29318    0.99415    1.000
    F3       F        0.82749    0.31795    0.38275    1.000
    F4       F        0.82852    0.50152    0.34917    1.000
    F5       F        0.61317    0.71423    0.56813    1.000
    F6       F        0.70682    0.54626    0.50585    1.000
    F7       F        0.68205    0.17251    0.11725    1.000
    F8       F        0.49848    0.17148    0.15083    1.000
    F9       F        0.71423    0.61317    0.06813    1.000
    F10      F        0.54626    0.70682    0.00585    1.000
    F11      F        0.17251    0.68205    0.61725    1.000
    F12      F        0.17148    0.49848    0.65083    1.000
    F13      F        0.38683    0.28577    0.43187    1.000
    F14      F        0.29318    0.45374    0.49415    1.000
    F15      F        0.31795    0.82749    0.88275    1.000
    F16      F        0.50152    0.82852    0.84917    1.000
