# CIF file generated by openbabel 3.1.0, see https://openbabel.org
data_I
_chemical_name_common 'image0'
_cell_length_a 20.463
_cell_length_b 20.463
_cell_length_c 17.989
_cell_angle_alpha 90
_cell_angle_beta 90
_cell_angle_gamma 120
_space_group_name_H-M_alt 'P 1'
_space_group_name_Hall 'P 1'
loop_
    _symmetry_equiv_pos_as_xyz
    x,y,z
loop_
    _atom_site_label
    _atom_site_type_symbol
    _atom_site_fract_x
    _atom_site_fract_y
    _atom_site_fract_z
    _atom_site_occupancy
    Cu1      Cu       0.09222    0.34004    0.48494    1.000
    N1       N        0.13580    0.33980    0.38200    1.000
    N2       N        0.03770    0.40190    0.48940    1.000
    C1       C        0.09970    0.33260    0.31890    1.000
    C2       C        0.02640    0.33300    0.32080    1.000
    H1       H        0.03650    0.38410    0.32440    1.000
    H2       H        0.99800    0.30600    0.36380    1.000
    C3       C        0.07380    0.47620    0.47750    1.000
    C4       C        0.15400    0.51480    0.45100    1.000
    H3       H        0.15460    0.50930    0.39800    1.000
    H4       H        0.17940    0.49090    0.47300    1.000
    Cu2      Cu       0.65996    0.75218    0.48494    1.000
    N3       N        0.66020    0.79600    0.38200    1.000
    N4       N        0.59810    0.63580    0.48940    1.000
    C5       C        0.66740    0.76710    0.31890    1.000
    C6       C        0.66700    0.69340    0.32080    1.000
    H5       H        0.61590    0.65240    0.32440    1.000
    H6       H        0.69400    0.69200    0.36380    1.000
    C7       C        0.52380    0.59760    0.47750    1.000
    C8       C        0.48520    0.63920    0.45100    1.000
    H7       H        0.49070    0.64530    0.39800    1.000
    H8       H        0.50910    0.68850    0.47300    1.000
    Cu3      Cu       0.24782    0.90778    0.48494    1.000
    N5       N        0.20400    0.86420    0.38200    1.000
    N6       N        0.36420    0.96230    0.48940    1.000
    C9       C        0.23290    0.90030    0.31890    1.000
    C10      C        0.30660    0.97360    0.32080    1.000
    H9       H        0.34760    0.96350    0.32440    1.000
    H10      H        0.30800    0.00200    0.36380    1.000
    C11      C        0.40240    0.92620    0.47750    1.000
    C12      C        0.36080    0.84600    0.45100    1.000
    H11      H        0.35470    0.84540    0.39800    1.000
    H12      H        0.31150    0.82060    0.47300    1.000
    Cu4      Cu       0.90778    0.65996    0.98494    1.000
    N7       N        0.86420    0.66020    0.88200    1.000
    N8       N        0.96230    0.59810    0.98940    1.000
    C13      C        0.90030    0.66740    0.81890    1.000
    C14      C        0.97360    0.66700    0.82080    1.000
    H13      H        0.96350    0.61590    0.82440    1.000
    H14      H        0.00200    0.69400    0.86380    1.000
    C15      C        0.92620    0.52380    0.97750    1.000
    C16      C        0.84600    0.48520    0.95100    1.000
    H15      H        0.84540    0.49070    0.89800    1.000
    H16      H        0.82060    0.50910    0.97300    1.000
    Cu5      Cu       0.34004    0.24782    0.98494    1.000
    N9       N        0.33980    0.20400    0.88200    1.000
    N10      N        0.40190    0.36420    0.98940    1.000
    C17      C        0.33260    0.23290    0.81890    1.000
    C18      C        0.33300    0.30660    0.82080    1.000
    H17      H        0.38410    0.34760    0.82440    1.000
    H18      H        0.30600    0.30800    0.86380    1.000
    C19      C        0.47620    0.40240    0.97750    1.000
    C20      C        0.51480    0.36080    0.95100    1.000
    H19      H        0.50930    0.35470    0.89800    1.000
    H20      H        0.49090    0.31150    0.97300    1.000
    Cu6      Cu       0.75218    0.09222    0.98494    1.000
    N11      N        0.79600    0.13580    0.88200    1.000
    N12      N        0.63580    0.03770    0.98940    1.000
    C21      C        0.76710    0.09970    0.81890    1.000
    C22      C        0.69340    0.02640    0.82080    1.000
    H21      H        0.65240    0.03650    0.82440    1.000
    H22      H        0.69200    0.99800    0.86380    1.000
    C23      C        0.59760    0.07380    0.97750    1.000
    C24      C        0.63920    0.15400    0.95100    1.000
    H23      H        0.64530    0.15460    0.89800    1.000
    H24      H        0.68850    0.17940    0.97300    1.000
    Cu7      Cu       0.34004    0.09222    0.51506    1.000
    N13      N        0.33980    0.13580    0.61800    1.000
    N14      N        0.40190    0.03770    0.51060    1.000
    C25      C        0.33260    0.09970    0.68110    1.000
    C26      C        0.33300    0.02640    0.67920    1.000
    H25      H        0.38410    0.03650    0.67560    1.000
    H26      H        0.30600    0.99800    0.63620    1.000
    C27      C        0.47620    0.07380    0.52250    1.000
    C28      C        0.51480    0.15400    0.54900    1.000
    H27      H        0.50930    0.15460    0.60200    1.000
    H28      H        0.49090    0.17940    0.52700    1.000
    Cu8      Cu       0.75218    0.65996    0.51506    1.000
    N15      N        0.79600    0.66020    0.61800    1.000
    N16      N        0.63580    0.59810    0.51060    1.000
    C29      C        0.76710    0.66740    0.68110    1.000
    C30      C        0.69340    0.66700    0.67920    1.000
    H29      H        0.65240    0.61590    0.67560    1.000
    H30      H        0.69200    0.69400    0.63620    1.000
    C31      C        0.59760    0.52380    0.52250    1.000
    C32      C        0.63920    0.48520    0.54900    1.000
    H31      H        0.64530    0.49070    0.60200    1.000
    H32      H        0.68850    0.50910    0.52700    1.000
    Cu9      Cu       0.90778    0.24782    0.51506    1.000
    N17      N        0.86420    0.20400    0.61800    1.000
    N18      N        0.96230    0.36420    0.51060    1.000
    C33      C        0.90030    0.23290    0.68110    1.000
    C34      C        0.97360    0.30660    0.67920    1.000
    H33      H        0.96350    0.34760    0.67560    1.000
    H34      H        0.00200    0.30800    0.63620    1.000
    C35      C        0.92620    0.40240    0.52250    1.000
    C36      C        0.84600    0.36080    0.54900    1.000
    H35      H        0.84540    0.35470    0.60200    1.000
    H36      H        0.82060    0.31150    0.52700    1.000
    Cu10     Cu       0.65996    0.90778    0.01506    1.000
    N19      N        0.66020    0.86420    0.11800    1.000
    N20      N        0.59810    0.96230    0.01060    1.000
    C37      C        0.66740    0.90030    0.18110    1.000
    C38      C        0.66700    0.97360    0.17920    1.000
    H37      H        0.61590    0.96350    0.17560    1.000
    H38      H        0.69400    0.00200    0.13620    1.000
    C39      C        0.52380    0.92620    0.02250    1.000
    C40      C        0.48520    0.84600    0.04900    1.000
    H39      H        0.49070    0.84540    0.10200    1.000
    H40      H        0.50910    0.82060    0.02700    1.000
    Cu11     Cu       0.24782    0.34004    0.01506    1.000
    N21      N        0.20400    0.33980    0.11800    1.000
    N22      N        0.36420    0.40190    0.01060    1.000
    C41      C        0.23290    0.33260    0.18110    1.000
    C42      C        0.30660    0.33300    0.17920    1.000
    H41      H        0.34760    0.38410    0.17560    1.000
    H42      H        0.30800    0.30600    0.13620    1.000
    C43      C        0.40240    0.47620    0.02250    1.000
    C44      C        0.36080    0.51480    0.04900    1.000
    H43      H        0.35470    0.50930    0.10200    1.000
    H44      H        0.31150    0.49090    0.02700    1.000
    Cu12     Cu       0.09222    0.75218    0.01506    1.000
    N23      N        0.13580    0.79600    0.11800    1.000
    N24      N        0.03770    0.63580    0.01060    1.000
    C45      C        0.09970    0.76710    0.18110    1.000
    C46      C        0.02640    0.69340    0.17920    1.000
    H45      H        0.03650    0.65240    0.17560    1.000
    H46      H        0.99800    0.69200    0.13620    1.000
    C47      C        0.07380    0.59760    0.02250    1.000
    C48      C        0.15400    0.63920    0.04900    1.000
    H47      H        0.15460    0.64530    0.10200    1.000
    H48      H        0.17940    0.68850    0.02700    1.000
    Cu13     Cu       0.90778    0.65996    0.51506    1.000
    N25      N        0.86420    0.66020    0.61800    1.000
    N26      N        0.96230    0.59810    0.51060    1.000
    C49      C        0.90030    0.66740    0.68110    1.000
    C50      C        0.97360    0.66700    0.67920    1.000
    H49      H        0.96350    0.61590    0.67560    1.000
    H50      H        0.00200    0.69400    0.63620    1.000
    C51      C        0.92620    0.52380    0.52250    1.000
    C52      C        0.84600    0.48520    0.54900    1.000
    H51      H        0.84540    0.49070    0.60200    1.000
    H52      H        0.82060    0.50910    0.52700    1.000
    Cu14     Cu       0.34004    0.24782    0.51506    1.000
    N27      N        0.33980    0.20400    0.61800    1.000
    N28      N        0.40190    0.36420    0.51060    1.000
    C53      C        0.33260    0.23290    0.68110    1.000
    C54      C        0.33300    0.30660    0.67920    1.000
    H53      H        0.38410    0.34760    0.67560    1.000
    H54      H        0.30600    0.30800    0.63620    1.000
    C55      C        0.47620    0.40240    0.52250    1.000
    C56      C        0.51480    0.36080    0.54900    1.000
    H55      H        0.50930    0.35470    0.60200    1.000
    H56      H        0.49090    0.31150    0.52700    1.000
    Cu15     Cu       0.75218    0.09222    0.51506    1.000
    N29      N        0.79600    0.13580    0.61800    1.000
    N30      N        0.63580    0.03770    0.51060    1.000
    C57      C        0.76710    0.09970    0.68110    1.000
    C58      C        0.69340    0.02640    0.67920    1.000
    H57      H        0.65240    0.03650    0.67560    1.000
    H58      H        0.69200    0.99800    0.63620    1.000
    C59      C        0.59760    0.07380    0.52250    1.000
    C60      C        0.63920    0.15400    0.54900    1.000
    H59      H        0.64530    0.15460    0.60200    1.000
    H60      H        0.68850    0.17940    0.52700    1.000
    Cu16     Cu       0.09222    0.34004    0.01506    1.000
    N31      N        0.13580    0.33980    0.11800    1.000
    N32      N        0.03770    0.40190    0.01060    1.000
    C61      C        0.09970    0.33260    0.18110    1.000
    C62      C        0.02640    0.33300    0.17920    1.000
    H61      H        0.03650    0.38410    0.17560    1.000
    H62      H        0.99800    0.30600    0.13620    1.000
    C63      C        0.07380    0.47620    0.02250    1.000
    C64      C        0.15400    0.51480    0.04900    1.000
    H63      H        0.15460    0.50930    0.10200    1.000
    H64      H        0.17940    0.49090    0.02700    1.000
    Cu17     Cu       0.65996    0.75218    0.01506    1.000
    N33      N        0.66020    0.79600    0.11800    1.000
    N34      N        0.59810    0.63580    0.01060    1.000
    C65      C        0.66740    0.76710    0.18110    1.000
    C66      C        0.66700    0.69340    0.17920    1.000
    H65      H        0.61590    0.65240    0.17560    1.000
    H66      H        0.69400    0.69200    0.13620    1.000
    C67      C        0.52380    0.59760    0.02250    1.000
    C68      C        0.48520    0.63920    0.04900    1.000
    H67      H        0.49070    0.64530    0.10200    1.000
    H68      H        0.50910    0.68850    0.02700    1.000
    Cu18     Cu       0.24782    0.90778    0.01506    1.000
    N35      N        0.20400    0.86420    0.11800    1.000
    N36      N        0.36420    0.96230    0.01060    1.000
    C69      C        0.23290    0.90030    0.18110    1.000
    C70      C        0.30660    0.97360    0.17920    1.000
    H69      H        0.34760    0.96350    0.17560    1.000
    H70      H        0.30800    0.00200    0.13620    1.000
    C71      C        0.40240    0.92620    0.02250    1.000
    C72      C        0.36080    0.84600    0.04900    1.000
    H71      H        0.35470    0.84540    0.10200    1.000
    H72      H        0.31150    0.82060    0.02700    1.000
    Cu19     Cu       0.65996    0.90778    0.48494    1.000
    N37      N        0.66020    0.86420    0.38200    1.000
    N38      N        0.59810    0.96230    0.48940    1.000
    C73      C        0.66740    0.90030    0.31890    1.000
    C74      C        0.66700    0.97360    0.32080    1.000
    H73      H        0.61590    0.96350    0.32440    1.000
    H74      H        0.69400    0.00200    0.36380    1.000
    C75      C        0.52380    0.92620    0.47750    1.000
    C76      C        0.48520    0.84600    0.45100    1.000
    H75      H        0.49070    0.84540    0.39800    1.000
    H76      H        0.50910    0.82060    0.47300    1.000
    Cu20     Cu       0.24782    0.34004    0.48494    1.000
    N39      N        0.20400    0.33980    0.38200    1.000
    N40      N        0.36420    0.40190    0.48940    1.000
    C77      C        0.23290    0.33260    0.31890    1.000
    C78      C        0.30660    0.33300    0.32080    1.000
    H77      H        0.34760    0.38410    0.32440    1.000
    H78      H        0.30800    0.30600    0.36380    1.000
    C79      C        0.40240    0.47620    0.47750    1.000
    C80      C        0.36080    0.51480    0.45100    1.000
    H79      H        0.35470    0.50930    0.39800    1.000
    H80      H        0.31150    0.49090    0.47300    1.000
    Cu21     Cu       0.09222    0.75218    0.48494    1.000
    N41      N        0.13580    0.79600    0.38200    1.000
    N42      N        0.03770    0.63580    0.48940    1.000
    C81      C        0.09970    0.76710    0.31890    1.000
    C82      C        0.02640    0.69340    0.32080    1.000
    H81      H        0.03650    0.65240    0.32440    1.000
    H82      H        0.99800    0.69200    0.36380    1.000
    C83      C        0.07380    0.59760    0.47750    1.000
    C84      C        0.15400    0.63920    0.45100    1.000
    H83      H        0.15460    0.64530    0.39800    1.000
    H84      H        0.17940    0.68850    0.47300    1.000
    Cu22     Cu       0.34004    0.09222    0.98494    1.000
    N43      N        0.33980    0.13580    0.88200    1.000
    N44      N        0.40190    0.03770    0.98940    1.000
    C85      C        0.33260    0.09970    0.81890    1.000
    C86      C        0.33300    0.02640    0.82080    1.000
    H85      H        0.38410    0.03650    0.82440    1.000
    H86      H        0.30600    0.99800    0.86380    1.000
    C87      C        0.47620    0.07380    0.97750    1.000
    C88      C        0.51480    0.15400    0.95100    1.000
    H87      H        0.50930    0.15460    0.89800    1.000
    H88      H        0.49090    0.17940    0.97300    1.000
    Cu23     Cu       0.75218    0.65996    0.98494    1.000
    N45      N        0.79600    0.66020    0.88200    1.000
    N46      N        0.63580    0.59810    0.98940    1.000
    C89      C        0.76710    0.66740    0.81890    1.000
    C90      C        0.69340    0.66700    0.82080    1.000
    H89      H        0.65240    0.61590    0.82440    1.000
    H90      H        0.69200    0.69400    0.86380    1.000
    C91      C        0.59760    0.52380    0.97750    1.000
    C92      C        0.63920    0.48520    0.95100    1.000
    H91      H        0.64530    0.49070    0.89800    1.000
    H92      H        0.68850    0.50910    0.97300    1.000
    Cu24     Cu       0.90778    0.24782    0.98494    1.000
    N47      N        0.86420    0.20400    0.88200    1.000
    N48      N        0.96230    0.36420    0.98940    1.000
    C93      C        0.90030    0.23290    0.81890    1.000
    C94      C        0.97360    0.30660    0.82080    1.000
    H93      H        0.96350    0.34760    0.82440    1.000
    H94      H        0.00200    0.30800    0.86380    1.000
    C95      C        0.92620    0.40240    0.97750    1.000
    C96      C        0.84600    0.36080    0.95100    1.000
    H95      H        0.84540    0.35470    0.89800    1.000
    H96      H        0.82060    0.31150    0.97300    1.000
    Cu25     Cu       0.87657    0.12343    0.42372    1.000
    I1       I        0.80511    0.19489    0.40782    1.000
    N49      N        0.90240    0.09760    0.32210    1.000
    Cu26     Cu       0.87657    0.75314    0.42372    1.000
    I2       I        0.80511    0.61022    0.40782    1.000
    N50      N        0.90240    0.80480    0.32210    1.000
    Cu27     Cu       0.24686    0.12343    0.42372    1.000
    I3       I        0.38978    0.19489    0.40782    1.000
    N51      N        0.19520    0.09760    0.32210    1.000
    Cu28     Cu       0.12343    0.87657    0.92372    1.000
    I4       I        0.19489    0.80511    0.90782    1.000
    N52      N        0.09760    0.90240    0.82210    1.000
    Cu29     Cu       0.12343    0.24686    0.92372    1.000
    I5       I        0.19489    0.38978    0.90782    1.000
    N53      N        0.09760    0.19520    0.82210    1.000
    Cu30     Cu       0.75314    0.87657    0.92372    1.000
    I6       I        0.61022    0.80511    0.90782    1.000
    N54      N        0.80480    0.90240    0.82210    1.000
    Cu31     Cu       0.12343    0.87657    0.57628    1.000
    I7       I        0.19489    0.80511    0.59218    1.000
    N55      N        0.09760    0.90240    0.67790    1.000
    Cu32     Cu       0.75314    0.87657    0.57628    1.000
    I8       I        0.61022    0.80511    0.59218    1.000
    N56      N        0.80480    0.90240    0.67790    1.000
    Cu33     Cu       0.12343    0.24686    0.57628    1.000
    I9       I        0.19489    0.38978    0.59218    1.000
    N57      N        0.09760    0.19520    0.67790    1.000
    Cu34     Cu       0.87657    0.12343    0.07628    1.000
    I10      I        0.80511    0.19489    0.09218    1.000
    N58      N        0.90240    0.09760    0.17790    1.000
    Cu35     Cu       0.24686    0.12343    0.07628    1.000
    I11      I        0.38978    0.19489    0.09218    1.000
    N59      N        0.19520    0.09760    0.17790    1.000
    Cu36     Cu       0.87657    0.75314    0.07628    1.000
    I12      I        0.80511    0.61022    0.09218    1.000
    N60      N        0.90240    0.80480    0.17790    1.000
    I13      I        0.00000    0.19454    0.50000    1.000
    I14      I        0.80546    0.80546    0.50000    1.000
    I15      I        0.19454    0.00000    0.50000    1.000
    I16      I        0.00000    0.80546    0.00000    1.000
    I17      I        0.19454    0.19454    0.00000    1.000
    I18      I        0.80546    0.00000    0.00000    1.000
    I19      I        0.00000    0.80546    0.50000    1.000
    I20      I        0.19454    0.19454    0.50000    1.000
    I21      I        0.80546    0.00000    0.50000    1.000
    I22      I        0.00000    0.19454    0.00000    1.000
    I23      I        0.80546    0.80546    0.00000    1.000
    I24      I        0.19454    0.00000    0.00000    1.000
    C97      C        0.13110    0.32920    0.25000    1.000
    C98      C        0.98020    0.29620    0.25000    1.000
    H97      H        0.93580    0.30090    0.25000    1.000
    H98      H        0.96440    0.24350    0.25000    1.000
    C99      C        0.67080    0.80190    0.25000    1.000
    C100     C        0.70380    0.68400    0.25000    1.000
    H99      H        0.69910    0.63490    0.25000    1.000
    H100     H        0.75650    0.72090    0.25000    1.000
    C101     C        0.19810    0.86890    0.25000    1.000
    C102     C        0.31600    0.01980    0.25000    1.000
    H101     H        0.36510    0.06420    0.25000    1.000
    H102     H        0.27910    0.03560    0.25000    1.000
    C103     C        0.86890    0.67080    0.75000    1.000
    C104     C        0.01980    0.70380    0.75000    1.000
    H103     H        0.06420    0.69910    0.75000    1.000
    H104     H        0.03560    0.75650    0.75000    1.000
    C105     C        0.32920    0.19810    0.75000    1.000
    C106     C        0.29620    0.31600    0.75000    1.000
    H105     H        0.30090    0.36510    0.75000    1.000
    H106     H        0.24350    0.27910    0.75000    1.000
    C107     C        0.80190    0.13110    0.75000    1.000
    C108     C        0.68400    0.98020    0.75000    1.000
    H107     H        0.63490    0.93580    0.75000    1.000
    H108     H        0.72090    0.96440    0.75000    1.000
    C109     C        0.32920    0.13110    0.75000    1.000
    C110     C        0.29620    0.98020    0.75000    1.000
    H109     H        0.30090    0.93580    0.75000    1.000
    H110     H        0.24350    0.96440    0.75000    1.000
    C111     C        0.80190    0.67080    0.75000    1.000
    C112     C        0.68400    0.70380    0.75000    1.000
    H111     H        0.63490    0.69910    0.75000    1.000
    H112     H        0.72090    0.75650    0.75000    1.000
    C113     C        0.86890    0.19810    0.75000    1.000
    C114     C        0.01980    0.31600    0.75000    1.000
    H113     H        0.06420    0.36510    0.75000    1.000
    H114     H        0.03560    0.27910    0.75000    1.000
    C115     C        0.67080    0.86890    0.25000    1.000
    C116     C        0.70380    0.01980    0.25000    1.000
    H115     H        0.69910    0.06420    0.25000    1.000
    H116     H        0.75650    0.03560    0.25000    1.000
    C117     C        0.19810    0.32920    0.25000    1.000
    C118     C        0.31600    0.29620    0.25000    1.000
    H117     H        0.36510    0.30090    0.25000    1.000
    H118     H        0.27910    0.24350    0.25000    1.000
    C119     C        0.13110    0.80190    0.25000    1.000
    C120     C        0.98020    0.68400    0.25000    1.000
    H119     H        0.93580    0.63490    0.25000    1.000
    H120     H        0.96440    0.72090    0.25000    1.000
    C121     C        0.03720    0.51860    0.48800    1.000
    C122     C        0.19570    0.59785    0.47070    1.000
    H121     H        0.24350    0.62175    0.44560    1.000
    H122     H        0.20550    0.60275    0.52320    1.000
    C123     C        0.48140    0.51860    0.48800    1.000
    C124     C        0.40215    0.59785    0.47070    1.000
    H123     H        0.37825    0.62175    0.44560    1.000
    H124     H        0.39725    0.60275    0.52320    1.000
    C125     C        0.48140    0.96280    0.48800    1.000
    C126     C        0.40215    0.80430    0.47070    1.000
    H125     H        0.37825    0.75650    0.44560    1.000
    H126     H        0.39725    0.79450    0.52320    1.000
    C127     C        0.96280    0.48140    0.98800    1.000
    C128     C        0.80430    0.40215    0.97070    1.000
    H127     H        0.75650    0.37825    0.94560    1.000
    H128     H        0.79450    0.39725    0.02320    1.000
    C129     C        0.51860    0.48140    0.98800    1.000
    C130     C        0.59785    0.40215    0.97070    1.000
    H129     H        0.62175    0.37825    0.94560    1.000
    H130     H        0.60275    0.39725    0.02320    1.000
    C131     C        0.51860    0.03720    0.98800    1.000
    C132     C        0.59785    0.19570    0.97070    1.000
    H131     H        0.62175    0.24350    0.94560    1.000
    H132     H        0.60275    0.20550    0.02320    1.000
    C133     C        0.51860    0.03720    0.51200    1.000
    C134     C        0.59785    0.19570    0.52930    1.000
    H133     H        0.62175    0.24350    0.55440    1.000
    H134     H        0.60275    0.20550    0.47680    1.000
    C135     C        0.51860    0.48140    0.51200    1.000
    C136     C        0.59785    0.40215    0.52930    1.000
    H135     H        0.62175    0.37825    0.55440    1.000
    H136     H        0.60275    0.39725    0.47680    1.000
    C137     C        0.96280    0.48140    0.51200    1.000
    C138     C        0.80430    0.40215    0.52930    1.000
    H137     H        0.75650    0.37825    0.55440    1.000
    H138     H        0.79450    0.39725    0.47680    1.000
    C139     C        0.48140    0.96280    0.01200    1.000
    C140     C        0.40215    0.80430    0.02930    1.000
    H139     H        0.37825    0.75650    0.05440    1.000
    H140     H        0.39725    0.79450    0.97680    1.000
    C141     C        0.48140    0.51860    0.01200    1.000
    C142     C        0.40215    0.59785    0.02930    1.000
    H141     H        0.37825    0.62175    0.05440    1.000
    H142     H        0.39725    0.60275    0.97680    1.000
    C143     C        0.03720    0.51860    0.01200    1.000
    C144     C        0.19570    0.59785    0.02930    1.000
    H143     H        0.24350    0.62175    0.05440    1.000
    H144     H        0.20550    0.60275    0.97680    1.000
    C145     C        0.90960    0.09040    0.25000    1.000
    C146     C        0.90960    0.81920    0.25000    1.000
    C147     C        0.18080    0.09040    0.25000    1.000
    C148     C        0.09040    0.90960    0.75000    1.000
    C149     C        0.09040    0.18080    0.75000    1.000
    C150     C        0.81920    0.90960    0.75000    1.000
