# CIF file generated by openbabel 3.1.0, see https://openbabel.org
data_I
_chemical_name_common 'image0'
_cell_length_a 10.8014
_cell_length_b 10.8014
_cell_length_c 13.6319
_cell_angle_alpha 90
_cell_angle_beta 90
_cell_angle_gamma 120
_space_group_name_H-M_alt 'P 1'
_space_group_name_Hall 'P 1'
loop_
    _symmetry_equiv_pos_as_xyz
    x,y,z
loop_
    _atom_site_label
    _atom_site_type_symbol
    _atom_site_fract_x
    _atom_site_fract_y
    _atom_site_fract_z
    _atom_site_occupancy
    C1       C        0.47040    0.46370    0.28890    1.000
    N1       N        0.50230    0.37220    0.33870    1.000
    N2       N        0.37640    0.49090    0.33970    1.000
    N3       N        0.41390    0.33030    0.40650    1.000
    N4       N        0.34340    0.39630    0.40620    1.000
    C2       C        0.31290    0.43500    0.45000    1.000
    H1       H        0.25870    0.46580    0.48390    1.000
    C3       C        0.34740    0.33670    0.48830    1.000
    H2       H        0.30160    0.28840    0.54540    1.000
    C4       C        0.44500    0.30700    0.44650    1.000
    H3       H        0.47750    0.25260    0.47880    1.000
    C5       C        0.53630    0.00670    0.28890    1.000
    N5       N        0.62780    0.13010    0.33870    1.000
    N6       N        0.50910    0.88550    0.33970    1.000
    N7       N        0.66970    0.08360    0.40650    1.000
    N8       N        0.60370    0.94710    0.40620    1.000
    C6       C        0.56500    0.87790    0.45000    1.000
    H4       H        0.53420    0.79290    0.48390    1.000
    C7       C        0.66330    0.01070    0.48830    1.000
    H5       H        0.71160    0.01320    0.54540    1.000
    C8       C        0.69300    0.13800    0.44650    1.000
    H6       H        0.74740    0.22490    0.47880    1.000
    C9       C        0.99330    0.52960    0.28890    1.000
    N9       N        0.86990    0.49770    0.33870    1.000
    N10      N        0.11450    0.62360    0.33970    1.000
    N11      N        0.91640    0.58610    0.40650    1.000
    N12      N        0.05290    0.65660    0.40620    1.000
    C10      C        0.12210    0.68710    0.45000    1.000
    H7       H        0.20710    0.74130    0.48390    1.000
    C11      C        0.98930    0.65260    0.48830    1.000
    H8       H        0.98680    0.69840    0.54540    1.000
    C12      C        0.86200    0.55500    0.44650    1.000
    H9       H        0.77510    0.52250    0.47880    1.000
    C13      C        0.53630    0.52960    0.21110    1.000
    N13      N        0.62780    0.49770    0.16130    1.000
    N14      N        0.50910    0.62360    0.16030    1.000
    N15      N        0.66970    0.58610    0.09350    1.000
    N16      N        0.60370    0.65660    0.09380    1.000
    C14      C        0.56500    0.68710    0.05000    1.000
    H10      H        0.53420    0.74130    0.01610    1.000
    C15      C        0.66330    0.65260    0.01170    1.000
    H11      H        0.71160    0.69840    0.95460    1.000
    C16      C        0.69300    0.55500    0.05350    1.000
    H12      H        0.74740    0.52250    0.02120    1.000
    C17      C        0.99330    0.46370    0.21110    1.000
    N17      N        0.86990    0.37220    0.16130    1.000
    N18      N        0.11450    0.49090    0.16030    1.000
    N19      N        0.91640    0.33030    0.09350    1.000
    N20      N        0.05290    0.39630    0.09380    1.000
    C18      C        0.12210    0.43500    0.05000    1.000
    H13      H        0.20710    0.46580    0.01610    1.000
    C19      C        0.98930    0.33670    0.01170    1.000
    H14      H        0.98680    0.28840    0.95460    1.000
    C20      C        0.86200    0.30700    0.05350    1.000
    H15      H        0.77510    0.25260    0.02120    1.000
    C21      C        0.47040    0.00670    0.21110    1.000
    N21      N        0.50230    0.13010    0.16130    1.000
    N22      N        0.37640    0.88550    0.16030    1.000
    N23      N        0.41390    0.08360    0.09350    1.000
    N24      N        0.34340    0.94710    0.09380    1.000
    C22      C        0.31290    0.87790    0.05000    1.000
    H16      H        0.25870    0.79290    0.01610    1.000
    C23      C        0.34740    0.01070    0.01170    1.000
    H17      H        0.30160    0.01320    0.95460    1.000
    C24      C        0.44500    0.13800    0.05350    1.000
    H18      H        0.47750    0.22490    0.02120    1.000
    C25      C        0.52960    0.53630    0.71110    1.000
    N25      N        0.49770    0.62780    0.66130    1.000
    N26      N        0.62360    0.50910    0.66030    1.000
    N27      N        0.58610    0.66970    0.59350    1.000
    N28      N        0.65660    0.60370    0.59380    1.000
    C26      C        0.68710    0.56500    0.55000    1.000
    H19      H        0.74130    0.53420    0.51610    1.000
    C27      C        0.65260    0.66330    0.51170    1.000
    H20      H        0.69840    0.71160    0.45460    1.000
    C28      C        0.55500    0.69300    0.55350    1.000
    H21      H        0.52250    0.74740    0.52120    1.000
    C29      C        0.46370    0.99330    0.71110    1.000
    N29      N        0.37220    0.86990    0.66130    1.000
    N30      N        0.49090    0.11450    0.66030    1.000
    N31      N        0.33030    0.91640    0.59350    1.000
    N32      N        0.39630    0.05290    0.59380    1.000
    C30      C        0.43500    0.12210    0.55000    1.000
    H22      H        0.46580    0.20710    0.51610    1.000
    C31      C        0.33670    0.98930    0.51170    1.000
    H23      H        0.28840    0.98680    0.45460    1.000
    C32      C        0.30700    0.86200    0.55350    1.000
    H24      H        0.25260    0.77510    0.52120    1.000
    C33      C        0.00670    0.47040    0.71110    1.000
    N33      N        0.13010    0.50230    0.66130    1.000
    N34      N        0.88550    0.37640    0.66030    1.000
    N35      N        0.08360    0.41390    0.59350    1.000
    N36      N        0.94710    0.34340    0.59380    1.000
    C34      C        0.87790    0.31290    0.55000    1.000
    H25      H        0.79290    0.25870    0.51610    1.000
    C35      C        0.01070    0.34740    0.51170    1.000
    H26      H        0.01320    0.30160    0.45460    1.000
    C36      C        0.13800    0.44500    0.55350    1.000
    H27      H        0.22490    0.47750    0.52120    1.000
    C37      C        0.46370    0.47040    0.78890    1.000
    N37      N        0.37220    0.50230    0.83870    1.000
    N38      N        0.49090    0.37640    0.83970    1.000
    N39      N        0.33030    0.41390    0.90650    1.000
    N40      N        0.39630    0.34340    0.90620    1.000
    C38      C        0.43500    0.31290    0.95000    1.000
    H28      H        0.46580    0.25870    0.98390    1.000
    C39      C        0.33670    0.34740    0.98830    1.000
    H29      H        0.28840    0.30160    0.04540    1.000
    C40      C        0.30700    0.44500    0.94650    1.000
    H30      H        0.25260    0.47750    0.97880    1.000
    C41      C        0.00670    0.53630    0.78890    1.000
    N41      N        0.13010    0.62780    0.83870    1.000
    N42      N        0.88550    0.50910    0.83970    1.000
    N43      N        0.08360    0.66970    0.90650    1.000
    N44      N        0.94710    0.60370    0.90620    1.000
    C42      C        0.87790    0.56500    0.95000    1.000
    H31      H        0.79290    0.53420    0.98390    1.000
    C43      C        0.01070    0.66330    0.98830    1.000
    H32      H        0.01320    0.71160    0.04540    1.000
    C44      C        0.13800    0.69300    0.94650    1.000
    H33      H        0.22490    0.74740    0.97880    1.000
    C45      C        0.52960    0.99330    0.78890    1.000
    N45      N        0.49770    0.86990    0.83870    1.000
    N46      N        0.62360    0.11450    0.83970    1.000
    N47      N        0.58610    0.91640    0.90650    1.000
    N48      N        0.65660    0.05290    0.90620    1.000
    C46      C        0.68710    0.12210    0.95000    1.000
    H34      H        0.74130    0.20710    0.98390    1.000
    C47      C        0.65260    0.98930    0.98830    1.000
    H35      H        0.69840    0.98680    0.04540    1.000
    C48      C        0.55500    0.86200    0.94650    1.000
    H36      H        0.52250    0.77510    0.97880    1.000
    Na1      Na       0.33333    0.66667    0.25000    1.000
    Na2      Na       0.66667    0.33333    0.75000    1.000
    Na3      Na       0.66667    0.33333    0.25000    1.000
    Na4      Na       0.33333    0.66667    0.75000    1.000
