# CIF file generated by openbabel 3.1.0, see https://openbabel.org
data_I
_chemical_name_common 'image0'
_cell_length_a 13.543
_cell_length_b 25.778
_cell_length_c 26.753
_cell_angle_alpha 98.786
_cell_angle_beta 103.609
_cell_angle_gamma 103.991
_space_group_name_H-M_alt 'P 1'
_space_group_name_Hall 'P 1'
loop_
    _symmetry_equiv_pos_as_xyz
    x,y,z
loop_
    _atom_site_label
    _atom_site_type_symbol
    _atom_site_fract_x
    _atom_site_fract_y
    _atom_site_fract_z
    _atom_site_occupancy
    Ti1      Ti       0.48172    0.37793    0.45077    1.000
    Ti2      Ti       0.33708    0.42412    0.50916    1.000
    Ti3      Ti       0.63295    0.46513    0.54883    1.000
    Ti4      Ti       0.31013    0.04186    0.94756    1.000
    Ti5      Ti       0.51038    0.02689    0.91868    1.000
    Ti6      Ti       0.49890    0.09694    0.04951    1.000
    Ti7      Ti       0.61665    0.07497    0.57024    1.000
    Ti8      Ti       0.71283    0.05782    0.47730    1.000
    Ti9      Ti       0.63648    0.94238    0.50107    1.000
    Ti10     Ti       0.94091    0.53294    0.89069    1.000
    Ti11     Ti       0.15062    0.53251    0.96811    1.000
    Ti12     Ti       0.89921    0.41668    0.91686    1.000
    Cu1      Cu       0.32928    0.25904    0.70757    1.000
    Cu2      Cu       0.31628    0.25760    0.80509    1.000
    Cu3      Cu       0.15883    0.19260    0.71701    1.000
    Cu4      Cu       0.18111    0.29645    0.74503    1.000
    I1       I        0.34821    0.17121    0.74569    1.000
    I2       I        0.13038    0.24900    0.64296    1.000
    I3       I        0.39655    0.35116    0.78029    1.000
    I4       I        0.11291    0.23362    0.80611    1.000
    P1       P        0.49270    0.51799    0.61071    1.000
    P2       P        0.71100    0.07978    0.02194    1.000
    P3       P        0.11450    0.41563    0.00007    1.000
    P4       P        0.53010    0.95759    0.59706    1.000
    N1       N        0.41410    0.26400    0.65500    1.000
    N2       N        0.41380    0.25990    0.87580    1.000
    N3       N        0.05890    0.11540    0.68930    1.000
    N4       N        0.13050    0.36410    0.74820    1.000
    C1       C        0.40380    0.29610    0.62060    1.000
    H1       H        0.36170    0.32020    0.62440    1.000
    C2       C        0.44980    0.29660    0.57980    1.000
    C3       C        0.50610    0.26050    0.57240    1.000
    H2       H        0.54000    0.26050    0.54500    1.000
    C4       C        0.51400    0.22300    0.60530    1.000
    H3       H        0.54900    0.19580    0.59930    1.000
    C5       C        0.47000    0.22700    0.64600    1.000
    H4       H        0.47810    0.20300    0.66940    1.000
    C6       C        0.43120    0.33260    0.54230    1.000
    C7       C        0.48580    0.52950    0.67720    1.000
    C8       C        0.50980    0.58350    0.70630    1.000
    H5       H        0.52850    0.61350    0.69040    1.000
    C9       C        0.50600    0.59280    0.75740    1.000
    H6       H        0.52870    0.62930    0.77780    1.000
    C10      C        0.47110    0.55010    0.77940    1.000
    H7       H        0.46030    0.55670    0.81340    1.000
    C11      C        0.45280    0.50120    0.75370    1.000
    H8       H        0.43500    0.47170    0.77040    1.000
    C12      C        0.45810    0.48950    0.70170    1.000
    H9       H        0.44160    0.45240    0.68370    1.000
    C13      C        0.23480    0.34250    0.40280    1.000
    C14      C        0.19740    0.28340    0.40570    1.000
    H10      H        0.13290    0.26450    0.37670    1.000
    H11      H        0.18210    0.28140    0.43950    1.000
    H12      H        0.25280    0.26570    0.40270    1.000
    C15      C        0.23200    0.35920    0.35570    1.000
    H13      H        0.27020    0.39840    0.36320    1.000
    H14      H        0.15850    0.35290    0.33540    1.000
    H15      H        0.26680    0.33820    0.33530    1.000
    C16      C        0.72290    0.39710    0.47080    1.000
    C17      C        0.74630    0.35110    0.49000    1.000
    H16      H        0.80760    0.34420    0.47980    1.000
    H17      H        0.68470    0.31860    0.47490    1.000
    H18      H        0.76250    0.35910    0.52860    1.000
    C18      C        0.79300    0.44210    0.46590    1.000
    H19      H        0.75570    0.46910    0.45670    1.000
    H20      H        0.82500    0.43170    0.43820    1.000
    H21      H        0.84840    0.45810    0.49940    1.000
    C19      C        0.50020    0.30150    0.90180    1.000
    H22      H        0.51190    0.33370    0.88820    1.000
    C20      C        0.57140    0.30090    0.94570    1.000
    H23      H        0.63120    0.33190    0.96250    1.000
    C21      C        0.55650    0.25370    0.96660    1.000
    H24      H        0.60670    0.25180    0.99730    1.000
    C22      C        0.46820    0.21070    0.94190    1.000
    C23      C        0.40090    0.21450    0.89630    1.000
    H25      H        0.34190    0.18360    0.87810    1.000
    C24      C        0.44320    0.15990    0.96250    1.000
    C25      C        0.83380    0.13130    0.03210    1.000
    C26      C        0.86200    0.15980    0.00050    1.000
    H26      H        0.81230    0.15140    0.96660    1.000
    C27      C        0.95500    0.20190    0.00850    1.000
    H27      H        0.96330    0.22100    0.98140    1.000
    C28      C        0.02500    0.21420    0.05020    1.000
    C29      C        0.98900    0.20150    0.08910    1.000
    H28      H        0.02020    0.22370    0.12370    1.000
    C30      C        0.90100    0.15220    0.07800    1.000
    H29      H        0.89260    0.13450    0.10610    1.000
    C31      C        0.28660    0.98800    0.83450    1.000
    C32      C        0.29400    0.93580    0.81580    1.000
    H30      H        0.30250    0.91670    0.84480    1.000
    H31      H        0.35460    0.93910    0.80160    1.000
    H32      H        0.22850    0.91500    0.78800    1.000
    C33      C        0.28060    0.02660    0.80100    1.000
    H33      H        0.23700    0.00710    0.76520    1.000
    H34      H        0.35220    0.04520    0.80010    1.000
    H35      H        0.24860    0.05380    0.81490    1.000
    C34      C        0.26140    0.08650    0.04700    1.000
    C35      C        0.25500    0.14570    0.05140    1.000
    H36      H        0.20380    0.15120    0.07050    1.000
    H37      H        0.23280    0.15240    0.01600    1.000
    H38      H        0.32520    0.17120    0.07050    1.000
    C36      C        0.23700    0.05390    0.07780    1.000
    H39      H        0.25890    0.02080    0.06910    1.000
    H40      H        0.16070    0.04390    0.07300    1.000
    H41      H        0.27480    0.07270    0.11460    1.000
    C37      C        0.06540    0.08010    0.71940    1.000
    H42      H        0.11280    0.09270    0.75400    1.000
    C38      C        0.00700    0.02540    0.70350    1.000
    H43      H        0.01560    0.00070    0.72610    1.000
    C39      C        0.93620    0.00780    0.65400    1.000
    H44      H        0.89430    0.97060    0.64210    1.000
    C40      C        0.92570    0.04450    0.62130    1.000
    C41      C        0.98960    0.09730    0.64120    1.000
    H45      H        0.98440    0.12290    0.61930    1.000
    C42      C        0.84640    0.02670    0.56930    1.000
    C43      C        0.55890    0.93500    0.65650    1.000
    C44      C        0.66000    0.94120    0.68390    1.000
    H46      H        0.71790    0.95590    0.67090    1.000
    C45      C        0.67700    0.92440    0.73460    1.000
    H47      H        0.74710    0.93100    0.75650    1.000
    C46      C        0.59800    0.90090    0.74920    1.000
    H48      H        0.60960    0.88440    0.77870    1.000
    C47      C        0.50500    0.89910    0.72520    1.000
    H49      H        0.44850    0.88650    0.73990    1.000
    C48      C        0.48400    0.91490    0.67920    1.000
    H50      H        0.41230    0.91150    0.66180    1.000
    C49      C        0.71720    0.95100    0.40330    1.000
    H51      H        0.68270    0.91140    0.40070    1.000
    C50      C        0.65700    0.96460    0.35340    1.000
    H52      H        0.58170    0.95810    0.35260    1.000
    H53      H        0.66180    0.94110    0.32230    1.000
    H54      H        0.68720    0.00310    0.35340    1.000
    C51      C        0.82960    0.95640    0.41150    1.000
    H55      H        0.84000    0.93590    0.38010    1.000
    H56      H        0.85560    0.94160    0.44200    1.000
    H57      H        0.86910    0.99510    0.41790    1.000
    C52      C        0.71730    0.17530    0.53140    1.000
    H58      H        0.68790    0.18770    0.56060    1.000
    C53      C        0.65760    0.18890    0.48700    1.000
    H59      H        0.58280    0.16800    0.47870    1.000
    H60      H        0.68430    0.18000    0.45670    1.000
    H61      H        0.66450    0.22830    0.49480    1.000
    C54      C        0.83340    0.20380    0.55200    1.000
    H62      H        0.84540    0.24340    0.55510    1.000
    H63      H        0.87000    0.19020    0.52770    1.000
    H64      H        0.86100    0.19670    0.58680    1.000
    C55      C        0.07860    0.37900    0.78230    1.000
    H65      H        0.05420    0.35400    0.80250    1.000
    C56      C        0.05970    0.42960    0.78890    1.000
    C57      C        0.09510    0.46580    0.76020    1.000
    H66      H        0.08340    0.50090    0.76450    1.000
    C58      C        0.14780    0.45060    0.72490    1.000
    H67      H        0.17340    0.47500    0.70450    1.000
    C59      C        0.16260    0.39910    0.72000    1.000
    H68      H        0.19750    0.38830    0.69500    1.000
    C60      C        0.00340    0.44450    0.82900    1.000
    C61      C        0.18810    0.36650    0.00150    1.000
    C62      C        0.18590    0.33310    0.95780    1.000
    H69      H        0.14640    0.33640    0.92460    1.000
    C63      C        0.23930    0.29380    0.95920    1.000
    H70      H        0.23180    0.26870    0.92760    1.000
    C64      C        0.30040    0.29110    0.00410    1.000
    H71      H        0.34330    0.26680    0.00400    1.000
    C65      C        0.30390    0.32240    0.05120    1.000
    H72      H        0.34440    0.31870    0.08390    1.000
    C66      C        0.24480    0.36020    0.04860    1.000
    H73      H        0.24410    0.38200    0.08050    1.000
    C67      C        0.14270    0.63310    0.91710    1.000
    C68      C        0.18100    0.63090    0.87190    1.000
    H74      H        0.21790    0.66800    0.87030    1.000
    H75      H        0.12120    0.61450    0.84000    1.000
    H76      H        0.23030    0.60850    0.87410    1.000
    C69      C        0.14100    0.67440    0.95280    1.000
    H77      H        0.12160    0.66050    0.98240    1.000
    H78      H        0.08790    0.69170    0.93680    1.000
    H79      H        0.21070    0.70140    0.96560    1.000
    C70      C        0.71400    0.44710    0.84920    1.000
    H80      H        0.68850    0.41060    0.85760    1.000
    C71      C        0.65400    0.47880    0.87210    1.000
    H81      H        0.67450    0.48290    0.91050    1.000
    H82      H        0.57800    0.45980    0.85760    1.000
    H83      H        0.66900    0.51510    0.86380    1.000
    C72      C        0.69850    0.43260    0.79280    1.000
    H84      H        0.73990    0.40750    0.78530    1.000
    H85      H        0.72220    0.46590    0.78010    1.000
    H86      H        0.62310    0.41470    0.77490    1.000
    O1       O        0.47330    0.32930    0.50570    1.000
    O2       O        0.37420    0.36290    0.55030    1.000
    O3       O        0.58700    0.49630    0.60840    1.000
    O4       O        0.38880    0.47760    0.57730    1.000
    O5       O        0.63300    0.40830    0.48660    1.000
    O6       O        0.50950    0.57440    0.59710    1.000
    O7       O        0.33030    0.37070    0.44390    1.000
    O8       O        0.30850    0.47460    0.46920    1.000
    O9       O        0.48810    0.43650    0.51000    1.000
    O10      O        0.36530    0.12030    0.93490    1.000
    O11      O        0.50470    0.16040    0.00610    1.000
    O12      O        0.65650    0.06520    0.96350    1.000
    O13      O        0.64750    0.10440    0.05380    1.000
    O14      O        0.35320    0.01350    0.88660    1.000
    O15      O        0.33870    0.07950    0.02160    1.000
    O16      O        0.48510    0.04080    0.08560    1.000
    O17      O        0.46170    0.05090    0.97710    1.000
    O18      O        0.73990    0.03130    0.04080    1.000
    O19      O        0.49340    0.08750    0.55040    1.000
    O20      O        0.78560    0.97900    0.55900    1.000
    O21      O        0.84320    0.06110    0.54050    1.000
    O22      O        0.41060    0.94290    0.57750    1.000
    O23      O        0.58140    0.01920    0.61040    1.000
    O24      O        0.57650    0.92790    0.55910    1.000
    O25      O        0.69280    0.11700    0.52600    1.000
    O26      O        0.70150    0.98040    0.45060    1.000
    O27      O        0.62980    0.01930    0.51890    1.000
    O28      O        0.97260    0.40890    0.85330    1.000
    O29      O        0.99130    0.49130    0.83350    1.000
    O30      O        0.10280    0.42770    0.05530    1.000
    O31      O        0.18020    0.46690    0.98830    1.000
    O32      O        0.00910    0.38990    0.95840    1.000
    O33      O        0.82620    0.46460    0.87810    1.000
    O34      O        0.09010    0.57890    0.92120    1.000
    O35      O        0.16600    0.57330    0.02960    1.000
    O36      O        0.00720    0.49070    0.93750    1.000
    Ti13     Ti       0.51828    0.62207    0.54923    1.000
    Ti14     Ti       0.66292    0.57588    0.49084    1.000
    Ti15     Ti       0.36705    0.53487    0.45117    1.000
    Ti16     Ti       0.68987    0.95814    0.05244    1.000
    Ti17     Ti       0.48962    0.97311    0.08132    1.000
    Ti18     Ti       0.50110    0.90306    0.95049    1.000
    Ti19     Ti       0.38335    0.92503    0.42976    1.000
    Ti20     Ti       0.28717    0.94218    0.52270    1.000
    Ti21     Ti       0.36352    0.05762    0.49893    1.000
    Ti22     Ti       0.05909    0.46706    0.10931    1.000
    Ti23     Ti       0.84938    0.46749    0.03189    1.000
    Ti24     Ti       0.10079    0.58332    0.08314    1.000
    Cu5      Cu       0.67072    0.74096    0.29243    1.000
    Cu6      Cu       0.68372    0.74240    0.19491    1.000
    Cu7      Cu       0.84117    0.80740    0.28299    1.000
    Cu8      Cu       0.81889    0.70355    0.25497    1.000
    I5       I        0.65179    0.82879    0.25431    1.000
    I6       I        0.86962    0.75100    0.35704    1.000
    I7       I        0.60345    0.64884    0.21971    1.000
    I8       I        0.88709    0.76638    0.19389    1.000
    P5       P        0.50730    0.48201    0.38929    1.000
    P6       P        0.28900    0.92022    0.97806    1.000
    P7       P        0.88550    0.58437    0.99993    1.000
    P8       P        0.46990    0.04241    0.40294    1.000
    N5       N        0.58590    0.73600    0.34500    1.000
    N6       N        0.58620    0.74010    0.12420    1.000
    N7       N        0.94110    0.88460    0.31070    1.000
    N8       N        0.86950    0.63590    0.25180    1.000
    C73      C        0.59620    0.70390    0.37940    1.000
    H87      H        0.63830    0.67980    0.37560    1.000
    C74      C        0.55020    0.70340    0.42020    1.000
    C75      C        0.49390    0.73950    0.42760    1.000
    H88      H        0.46000    0.73950    0.45500    1.000
    C76      C        0.48600    0.77700    0.39470    1.000
    H89      H        0.45100    0.80420    0.40070    1.000
    C77      C        0.53000    0.77300    0.35400    1.000
    H90      H        0.52190    0.79700    0.33060    1.000
    C78      C        0.56880    0.66740    0.45770    1.000
    C79      C        0.51420    0.47050    0.32280    1.000
    C80      C        0.49020    0.41650    0.29370    1.000
    H91      H        0.47150    0.38650    0.30960    1.000
    C81      C        0.49400    0.40720    0.24260    1.000
    H92      H        0.47130    0.37070    0.22220    1.000
    C82      C        0.52890    0.44990    0.22060    1.000
    H93      H        0.53970    0.44330    0.18660    1.000
    C83      C        0.54720    0.49880    0.24630    1.000
    H94      H        0.56500    0.52830    0.22960    1.000
    C84      C        0.54190    0.51050    0.29830    1.000
    H95      H        0.55840    0.54760    0.31630    1.000
    C85      C        0.76520    0.65750    0.59720    1.000
    C86      C        0.80260    0.71660    0.59430    1.000
    H96      H        0.86710    0.73550    0.62330    1.000
    H97      H        0.81790    0.71860    0.56050    1.000
    H98      H        0.74720    0.73430    0.59730    1.000
    C87      C        0.76800    0.64080    0.64430    1.000
    H99      H        0.72980    0.60160    0.63680    1.000
    H100     H        0.84150    0.64710    0.66460    1.000
    H101     H        0.73320    0.66180    0.66470    1.000
    C88      C        0.27710    0.60290    0.52920    1.000
    C89      C        0.25370    0.64890    0.51000    1.000
    H102     H        0.19240    0.65580    0.52020    1.000
    H103     H        0.31530    0.68140    0.52510    1.000
    H104     H        0.23750    0.64090    0.47140    1.000
    C90      C        0.20700    0.55790    0.53410    1.000
    H105     H        0.24430    0.53090    0.54330    1.000
    H106     H        0.17500    0.56830    0.56180    1.000
    H107     H        0.15160    0.54190    0.50060    1.000
    C91      C        0.49980    0.69850    0.09820    1.000
    H108     H        0.48810    0.66630    0.11180    1.000
    C92      C        0.42860    0.69910    0.05430    1.000
    H109     H        0.36880    0.66810    0.03750    1.000
    C93      C        0.44350    0.74630    0.03340    1.000
    H110     H        0.39330    0.74820    0.00270    1.000
    C94      C        0.53180    0.78930    0.05810    1.000
    C95      C        0.59910    0.78550    0.10370    1.000
    H111     H        0.65810    0.81640    0.12190    1.000
    C96      C        0.55680    0.84010    0.03750    1.000
    C97      C        0.16620    0.86870    0.96790    1.000
    C98      C        0.13800    0.84020    0.99950    1.000
    H112     H        0.18770    0.84860    0.03340    1.000
    C99      C        0.04500    0.79810    0.99150    1.000
    H113     H        0.03670    0.77900    0.01860    1.000
    C100     C        0.97500    0.78580    0.94980    1.000
    C101     C        0.01100    0.79850    0.91090    1.000
    H114     H        0.97980    0.77630    0.87630    1.000
    C102     C        0.09900    0.84780    0.92200    1.000
    H115     H        0.10740    0.86550    0.89390    1.000
    C103     C        0.71340    0.01200    0.16550    1.000
    C104     C        0.70600    0.06420    0.18420    1.000
    H116     H        0.69750    0.08330    0.15520    1.000
    H117     H        0.64540    0.06090    0.19840    1.000
    H118     H        0.77150    0.08500    0.21200    1.000
    C105     C        0.71940    0.97340    0.19900    1.000
    H119     H        0.76300    0.99290    0.23480    1.000
    H120     H        0.64780    0.95480    0.19990    1.000
    H121     H        0.75140    0.94620    0.18510    1.000
    C106     C        0.73860    0.91350    0.95300    1.000
    C107     C        0.74500    0.85430    0.94860    1.000
    H122     H        0.79620    0.84880    0.92950    1.000
    H123     H        0.76720    0.84760    0.98400    1.000
    H124     H        0.67480    0.82880    0.92950    1.000
    C108     C        0.76300    0.94610    0.92220    1.000
    H125     H        0.74110    0.97920    0.93090    1.000
    H126     H        0.83930    0.95610    0.92700    1.000
    H127     H        0.72520    0.92730    0.88540    1.000
    C109     C        0.93460    0.91990    0.28060    1.000
    H128     H        0.88720    0.90730    0.24600    1.000
    C110     C        0.99300    0.97460    0.29650    1.000
    H129     H        0.98440    0.99930    0.27390    1.000
    C111     C        0.06380    0.99220    0.34600    1.000
    H130     H        0.10570    0.02940    0.35790    1.000
    C112     C        0.07430    0.95550    0.37870    1.000
    C113     C        0.01040    0.90270    0.35880    1.000
    H131     H        0.01560    0.87710    0.38070    1.000
    C114     C        0.15360    0.97330    0.43070    1.000
    C115     C        0.44110    0.06500    0.34350    1.000
    C116     C        0.34000    0.05880    0.31610    1.000
    H132     H        0.28210    0.04410    0.32910    1.000
    C117     C        0.32300    0.07560    0.26540    1.000
    H133     H        0.25290    0.06900    0.24350    1.000
    C118     C        0.40200    0.09910    0.25080    1.000
    H134     H        0.39040    0.11560    0.22130    1.000
    C119     C        0.49500    0.10090    0.27480    1.000
    H135     H        0.55150    0.11350    0.26010    1.000
    C120     C        0.51600    0.08510    0.32080    1.000
    H136     H        0.58770    0.08850    0.33820    1.000
    C121     C        0.28280    0.04900    0.59670    1.000
    H137     H        0.31730    0.08860    0.59930    1.000
    C122     C        0.34300    0.03540    0.64660    1.000
    H138     H        0.41830    0.04190    0.64740    1.000
    H139     H        0.33820    0.05890    0.67770    1.000
    H140     H        0.31280    0.99690    0.64660    1.000
    C123     C        0.17040    0.04360    0.58850    1.000
    H141     H        0.16000    0.06410    0.61990    1.000
    H142     H        0.14440    0.05840    0.55800    1.000
    H143     H        0.13090    0.00490    0.58210    1.000
    C124     C        0.28270    0.82470    0.46860    1.000
    H144     H        0.31210    0.81230    0.43940    1.000
    C125     C        0.34240    0.81110    0.51300    1.000
    H145     H        0.41720    0.83200    0.52130    1.000
    H146     H        0.31570    0.82000    0.54330    1.000
    H147     H        0.33550    0.77170    0.50520    1.000
    C126     C        0.16660    0.79620    0.44800    1.000
    H148     H        0.15460    0.75660    0.44490    1.000
    H149     H        0.13000    0.80980    0.47230    1.000
    H150     H        0.13900    0.80330    0.41320    1.000
    C127     C        0.92140    0.62100    0.21770    1.000
    H151     H        0.94580    0.64600    0.19750    1.000
    C128     C        0.94030    0.57040    0.21110    1.000
    C129     C        0.90490    0.53420    0.23980    1.000
    H152     H        0.91660    0.49910    0.23550    1.000
    C130     C        0.85220    0.54940    0.27510    1.000
    H153     H        0.82660    0.52500    0.29550    1.000
    C131     C        0.83740    0.60090    0.28000    1.000
    H154     H        0.80250    0.61170    0.30500    1.000
    C132     C        0.99660    0.55550    0.17100    1.000
    C133     C        0.81190    0.63350    0.99850    1.000
    C134     C        0.81410    0.66690    0.04220    1.000
    H155     H        0.85360    0.66360    0.07540    1.000
    C135     C        0.76070    0.70620    0.04080    1.000
    H156     H        0.76820    0.73130    0.07240    1.000
    C136     C        0.69960    0.70890    0.99590    1.000
    H157     H        0.65670    0.73320    0.99600    1.000
    C137     C        0.69610    0.67760    0.94880    1.000
    H158     H        0.65560    0.68130    0.91610    1.000
    C138     C        0.75520    0.63980    0.95140    1.000
    H159     H        0.75590    0.61800    0.91950    1.000
    C139     C        0.85730    0.36690    0.08290    1.000
    C140     C        0.81900    0.36910    0.12810    1.000
    H160     H        0.78210    0.33200    0.12970    1.000
    H161     H        0.87880    0.38550    0.16000    1.000
    H162     H        0.76970    0.39150    0.12590    1.000
    C141     C        0.85900    0.32560    0.04720    1.000
    H163     H        0.87840    0.33950    0.01760    1.000
    H164     H        0.91210    0.30830    0.06320    1.000
    H165     H        0.78930    0.29860    0.03440    1.000
    C142     C        0.28600    0.55290    0.15080    1.000
    H166     H        0.31150    0.58940    0.14240    1.000
    C143     C        0.34600    0.52120    0.12790    1.000
    H167     H        0.32550    0.51710    0.08950    1.000
    H168     H        0.42200    0.54020    0.14240    1.000
    H169     H        0.33100    0.48490    0.13620    1.000
    C144     C        0.30150    0.56740    0.20720    1.000
    H170     H        0.26010    0.59250    0.21470    1.000
    H171     H        0.27780    0.53410    0.21990    1.000
    H172     H        0.37690    0.58530    0.22510    1.000
    O37      O        0.52670    0.67070    0.49430    1.000
    O38      O        0.62580    0.63710    0.44970    1.000
    O39      O        0.41300    0.50370    0.39160    1.000
    O40      O        0.61120    0.52240    0.42270    1.000
    O41      O        0.36700    0.59170    0.51340    1.000
    O42      O        0.49050    0.42560    0.40290    1.000
    O43      O        0.66970    0.62930    0.55610    1.000
    O44      O        0.69150    0.52540    0.53080    1.000
    O45      O        0.51190    0.56350    0.49000    1.000
    O46      O        0.63470    0.87970    0.06510    1.000
    O47      O        0.49530    0.83960    0.99390    1.000
    O48      O        0.34350    0.93480    0.03650    1.000
    O49      O        0.35250    0.89560    0.94620    1.000
    O50      O        0.64680    0.98650    0.11340    1.000
    O51      O        0.66130    0.92050    0.97840    1.000
    O52      O        0.51490    0.95920    0.91440    1.000
    O53      O        0.53830    0.94910    0.02290    1.000
    O54      O        0.26010    0.96870    0.95920    1.000
    O55      O        0.50660    0.91250    0.44960    1.000
    O56      O        0.21440    0.02100    0.44100    1.000
    O57      O        0.15680    0.93890    0.45950    1.000
    O58      O        0.58940    0.05710    0.42250    1.000
    O59      O        0.41860    0.98080    0.38960    1.000
    O60      O        0.42350    0.07210    0.44090    1.000
    O61      O        0.30720    0.88300    0.47400    1.000
    O62      O        0.29850    0.01960    0.54940    1.000
    O63      O        0.37020    0.98070    0.48110    1.000
    O64      O        0.02740    0.59110    0.14670    1.000
    O65      O        0.00870    0.50870    0.16650    1.000
    O66      O        0.89720    0.57230    0.94470    1.000
    O67      O        0.81980    0.53310    0.01170    1.000
    O68      O        0.99090    0.61010    0.04160    1.000
    O69      O        0.17380    0.53540    0.12190    1.000
    O70      O        0.90990    0.42110    0.07880    1.000
    O71      O        0.83400    0.42670    0.97040    1.000
    O72      O        0.99280    0.50930    0.06250    1.000
