# CIF file generated by openbabel 3.1.0, see https://openbabel.org
data_I
_chemical_name_common 'image0'
_cell_length_a 15.3035
_cell_length_b 39.6946
_cell_length_c 21.5934
_cell_angle_alpha 90
_cell_angle_beta 107.402
_cell_angle_gamma 90
_space_group_name_H-M_alt 'P 1'
_space_group_name_Hall 'P 1'
loop_
    _symmetry_equiv_pos_as_xyz
    x,y,z
loop_
    _atom_site_label
    _atom_site_type_symbol
    _atom_site_fract_x
    _atom_site_fract_y
    _atom_site_fract_z
    _atom_site_occupancy
    Cu1      Cu       0.29913    0.23648    0.20285    1.000
    Cu2      Cu       0.19147    0.28339    0.13371    1.000
    Cu3      Cu       0.51863    0.99217    0.94591    1.000
    O1       O        0.13726    0.28602    0.20530    1.000
    O2       O        0.29022    0.31408    0.17927    1.000
    O3       O        0.19826    0.20632    0.16305    1.000
    O4       O        0.60094    0.03083    0.96592    1.000
    O5       O        0.75696    0.22653    0.57063    1.000
    O6       O        0.84422    0.26793    0.62768    1.000
    O7       O        0.23476    0.24849    0.26648    1.000
    O8       O        0.38522    0.27312    0.23310    1.000
    O9       O        0.10655    0.24585    0.10113    1.000
    C1       C        0.61353    0.04743    0.01735    1.000
    C2       C        0.16528    0.26723    0.25428    1.000
    C3       C        0.36592    0.30346    0.21697    1.000
    C4       C        0.81733    0.24922    0.57918    1.000
    C5       C        0.03415    0.28635    0.29232    1.000
    H1       H        0.01680    0.30120    0.25750    1.000
    C6       C        0.00783    0.26164    0.38708    1.000
    C7       C        0.95931    0.20139    0.07185    1.000
    H2       H        0.94790    0.22380    0.05960    1.000
    C8       C        0.95494    0.25952    0.43461    1.000
    C9       C        0.82917    0.11970    0.05936    1.000
    C10      C        0.08472    0.24103    0.39514    1.000
    C11      C        0.74265    0.07585    0.99130    1.000
    H3       H        0.73190    0.06210    0.95490    1.000
    C12      C        0.77230    0.11708    0.09951    1.000
    C13      C        0.98390    0.28417    0.33521    1.000
    C14      C        0.90584    0.14471    0.07491    1.000
    C15      C        0.88880    0.17853    0.05817    1.000
    C16      C        0.81330    0.09895    0.00517    1.000
    C17      C        0.11153    0.26605    0.30132    1.000
    C18      C        0.12264    0.21628    0.12320    1.000
    C19      C        0.70234    0.09364    0.08617    1.000
    H4       H        0.66550    0.09160    0.11330    1.000
    C20      C        0.13718    0.24386    0.35296    1.000
    H5       H        0.18960    0.23080    0.35940    1.000
    C21      C        0.04782    0.19086    0.10401    1.000
    C22      C        0.98294    0.27847    0.49186    1.000
    C23      C        0.52617    0.31801    0.27725    1.000
    H6       H        0.53900    0.29510    0.28070    1.000
    C24      C        0.68765    0.07322    0.03205    1.000
    C25      C        0.59460    0.34140    0.30519    1.000
    C26      C        0.43952    0.32918    0.24452    1.000
    C27      C        0.41900    0.36287    0.23950    1.000
    H7       H        0.35990    0.36990    0.21760    1.000
    C28      C        0.57560    0.37559    0.29963    1.000
    C29      C        0.64803    0.40037    0.33198    1.000
    C30      C        0.06608    0.15736    0.12121    1.000
    H8       H        0.12560    0.15050    0.14270    1.000
    C31      C        0.88070    0.23766    0.42452    1.000
    C32      C        0.99565    0.13417    0.10637    1.000
    C33      C        0.48570    0.38629    0.26670    1.000
    O10      O        0.91722    0.47778    0.40224    1.000
    O11      O        0.88378    0.46589    0.49406    1.000
    O12      O        0.56970    0.04407    0.05823    1.000
    O13      O        0.79931    0.18578    0.02663    1.000
    O14      O        0.68187    0.33354    0.33942    1.000
    O15      O        0.87015    0.10417    0.96796    1.000
    O16      O        0.79269    0.13840    0.15105    1.000
    O17      O        0.10323    0.21978    0.44739    1.000
    O18      O        0.90791    0.30325    0.33177    1.000
    O19      O        0.00570    0.10090    0.12074    1.000
    C34      C        0.83461    0.23473    0.47079    1.000
    H9       H        0.78480    0.22030    0.46370    1.000
    C35      C        0.93653    0.27570    0.53873    1.000
    H10      H        0.95440    0.28850    0.57650    1.000
    C36      C        0.72704    0.43283    0.42671    1.000
    H11      H        0.73160    0.44030    0.46840    1.000
    O20      O        0.47338    0.42041    0.26558    1.000
    O21      O        0.05613    0.29881    0.49807    1.000
    O22      O        0.58937    0.40074    0.41966    1.000
    O23      O        0.85875    0.21994    0.36759    1.000
    C37      C        0.79118    0.44254    0.39684    1.000
    C38      C        0.86312    0.25337    0.52732    1.000
    C39      C        0.78341    0.43256    0.33375    1.000
    H12      H        0.82510    0.44010    0.31310    1.000
    C40      C        0.87059    0.46392    0.43340    1.000
    C41      C        0.65564    0.41181    0.39380    1.000
    C42      C        0.71224    0.41117    0.30202    1.000
    C43      C        0.77900    0.21996    0.00766    1.000
    H13      H        0.71470    0.22220    0.98590    1.000
    H14      H        0.81300    0.22660    0.97880    1.000
    H15      H        0.79570    0.23410    0.04540    1.000
    C44      C        0.09140    0.31685    0.55708    1.000
    H16      H        0.14270    0.33020    0.55500    1.000
    H17      H        0.11060    0.30120    0.59250    1.000
    H18      H        0.04460    0.33130    0.56360    1.000
    C45      C        0.88020    0.32638    0.28050    1.000
    H19      H        0.82670    0.33820    0.28320    1.000
    H20      H        0.86620    0.31460    0.23990    1.000
    H21      H        0.92860    0.34220    0.28330    1.000
    C46      C        0.17920    0.19744    0.45649    1.000
    H22      H        0.18530    0.18390    0.49430    1.000
    H23      H        0.23420    0.21030    0.46210    1.000
    H24      H        0.16930    0.18320    0.41920    1.000
    C47      C        0.85580    0.08384    0.91097    1.000
    H25      H        0.89980    0.08980    0.88910    1.000
    H26      H        0.79510    0.08750    0.88250    1.000
    H27      H        0.86310    0.06050    0.92310    1.000
    C48      C        0.73730    0.13581    0.19390    1.000
    H28      H        0.75780    0.15190    0.22840    1.000
    H29      H        0.74240    0.11350    0.21180    1.000
    H30      H        0.67450    0.14030    0.17020    1.000
    C49      C        0.09510    0.08969    0.15660    1.000
    H31      H        0.09390    0.06590    0.16380    1.000
    H32      H        0.11440    0.10120    0.19760    1.000
    H33      H        0.13720    0.09450    0.13250    1.000
    O24      O        0.70143    0.39844    0.24151    1.000
    C50      C        0.59490    0.41122    0.48370    1.000
    H34      H        0.54480    0.40170    0.49600    1.000
    H35      H        0.59180    0.43540    0.48510    1.000
    H36      H        0.65170    0.40370    0.51320    1.000
    C51      C        0.70320    0.29849    0.35160    1.000
    H37      H        0.76650    0.29610    0.37610    1.000
    H38      H        0.69170    0.28680    0.31110    1.000
    H39      H        0.66560    0.28920    0.37580    1.000
    C52      C        0.76810    0.40706    0.21000    1.000
    H40      H        0.75240    0.39660    0.16810    1.000
    H41      H        0.82720    0.39930    0.23570    1.000
    H42      H        0.76940    0.43110    0.20510    1.000
    C53      C        0.38210    0.43290    0.23450    1.000
    H43      H        0.38210    0.45710    0.23680    1.000
    H44      H        0.34080    0.42400    0.25620    1.000
    H45      H        0.36270    0.42600    0.18990    1.000
    C54      C        0.78300    0.19828    0.35500    1.000
    H46      H        0.77460    0.18720    0.31410    1.000
    H47      H        0.72910    0.21110    0.35350    1.000
    H48      H        0.79330    0.18170    0.38880    1.000
    Cu4      Cu       0.20087    0.73648    0.29715    1.000
    Cu5      Cu       0.30853    0.78339    0.36629    1.000
    Cu6      Cu       0.98137    0.49217    0.55409    1.000
    O25      O        0.36274    0.78602    0.29470    1.000
    O26      O        0.20978    0.81408    0.32073    1.000
    O27      O        0.30174    0.70632    0.33695    1.000
    O28      O        0.89906    0.53083    0.53408    1.000
    O29      O        0.74304    0.72653    0.92937    1.000
    O30      O        0.65578    0.76793    0.87232    1.000
    O31      O        0.26524    0.74849    0.23352    1.000
    O32      O        0.11478    0.77312    0.26690    1.000
    O33      O        0.39345    0.74585    0.39887    1.000
    C55      C        0.88647    0.54743    0.48265    1.000
    C56      C        0.33472    0.76723    0.24572    1.000
    C57      C        0.13408    0.80346    0.28303    1.000
    C58      C        0.68267    0.74922    0.92082    1.000
    C59      C        0.46585    0.78635    0.20768    1.000
    H49      H        0.48320    0.80120    0.24250    1.000
    C60      C        0.49217    0.76164    0.11292    1.000
    C61      C        0.54069    0.70139    0.42815    1.000
    H50      H        0.55210    0.72380    0.44040    1.000
    C62      C        0.54506    0.75952    0.06539    1.000
    C63      C        0.67083    0.61970    0.44064    1.000
    C64      C        0.41528    0.74103    0.10486    1.000
    C65      C        0.75735    0.57585    0.50870    1.000
    H51      H        0.76810    0.56210    0.54510    1.000
    C66      C        0.72770    0.61708    0.40049    1.000
    C67      C        0.51610    0.78417    0.16479    1.000
    C68      C        0.59416    0.64471    0.42509    1.000
    C69      C        0.61120    0.67853    0.44183    1.000
    C70      C        0.68670    0.59895    0.49483    1.000
    C71      C        0.38847    0.76605    0.19868    1.000
    C72      C        0.37736    0.71628    0.37680    1.000
    C73      C        0.79766    0.59364    0.41383    1.000
    H52      H        0.83450    0.59160    0.38670    1.000
    C74      C        0.36282    0.74386    0.14704    1.000
    H53      H        0.31040    0.73080    0.14060    1.000
    C75      C        0.45218    0.69086    0.39599    1.000
    C76      C        0.51706    0.77847    0.00814    1.000
    C77      C        0.97383    0.81801    0.22275    1.000
    H54      H        0.96100    0.79510    0.21930    1.000
    C78      C        0.81235    0.57322    0.46795    1.000
    C79      C        0.90540    0.84140    0.19481    1.000
    C80      C        0.06048    0.82918    0.25548    1.000
    C81      C        0.08100    0.86287    0.26050    1.000
    H55      H        0.14010    0.86990    0.28240    1.000
    C82      C        0.92440    0.87559    0.20037    1.000
    C83      C        0.85197    0.90037    0.16802    1.000
    C84      C        0.43392    0.65736    0.37879    1.000
    H56      H        0.37440    0.65050    0.35730    1.000
    C85      C        0.61930    0.73766    0.07548    1.000
    C86      C        0.50435    0.63417    0.39363    1.000
    C87      C        0.01430    0.88629    0.23330    1.000
    O34      O        0.58278    0.97778    0.09776    1.000
    O35      O        0.61622    0.96589    0.00594    1.000
    O36      O        0.93030    0.54407    0.44177    1.000
    O37      O        0.70069    0.68578    0.47337    1.000
    O38      O        0.81813    0.83354    0.16058    1.000
    O39      O        0.62985    0.60417    0.53204    1.000
    O40      O        0.70731    0.63840    0.34895    1.000
    O41      O        0.39677    0.71978    0.05261    1.000
    O42      O        0.59209    0.80325    0.16823    1.000
    O43      O        0.49430    0.60090    0.37926    1.000
    C88      C        0.66539    0.73473    0.02921    1.000
    H57      H        0.71520    0.72030    0.03630    1.000
    C89      C        0.56347    0.77570    0.96127    1.000
    H58      H        0.54560    0.78850    0.92350    1.000
    C90      C        0.77296    0.93283    0.07329    1.000
    H59      H        0.76840    0.94030    0.03160    1.000
    O44      O        0.02662    0.92041    0.23442    1.000
    O45      O        0.44387    0.79881    0.00193    1.000
    O46      O        0.91063    0.90074    0.08034    1.000
    O47      O        0.64125    0.71994    0.13241    1.000
    C91      C        0.70882    0.94254    0.10316    1.000
    C92      C        0.63688    0.75337    0.97268    1.000
    C93      C        0.71659    0.93256    0.16625    1.000
    H60      H        0.67490    0.94010    0.18690    1.000
    C94      C        0.62941    0.96392    0.06660    1.000
    C95      C        0.84436    0.91181    0.10620    1.000
    C96      C        0.78776    0.91117    0.19798    1.000
    C97      C        0.72100    0.71996    0.49234    1.000
    H61      H        0.78530    0.72220    0.51410    1.000
    H62      H        0.68700    0.72660    0.52120    1.000
    H63      H        0.70430    0.73410    0.45460    1.000
    C98      C        0.40860    0.81685    0.94292    1.000
    H64      H        0.35730    0.83020    0.94500    1.000
    H65      H        0.38940    0.80120    0.90750    1.000
    H66      H        0.45540    0.83130    0.93640    1.000
    C99      C        0.61980    0.82638    0.21950    1.000
    H67      H        0.67330    0.83820    0.21680    1.000
    H68      H        0.63380    0.81460    0.26010    1.000
    H69      H        0.57140    0.84220    0.21670    1.000
    C100     C        0.32080    0.69744    0.04351    1.000
    H70      H        0.31470    0.68390    0.00570    1.000
    H71      H        0.26580    0.71030    0.03790    1.000
    H72      H        0.33070    0.68320    0.08080    1.000
    C101     C        0.64420    0.58384    0.58903    1.000
    H73      H        0.60020    0.58980    0.61090    1.000
    H74      H        0.70490    0.58750    0.61750    1.000
    H75      H        0.63690    0.56050    0.57690    1.000
    C102     C        0.76270    0.63581    0.30610    1.000
    H76      H        0.74220    0.65190    0.27160    1.000
    H77      H        0.75760    0.61350    0.28820    1.000
    H78      H        0.82550    0.64030    0.32980    1.000
    C103     C        0.40490    0.58969    0.34340    1.000
    H79      H        0.40610    0.56590    0.33620    1.000
    H80      H        0.38560    0.60120    0.30240    1.000
    H81      H        0.36280    0.59450    0.36750    1.000
    O48      O        0.79857    0.89844    0.25849    1.000
    C104     C        0.90510    0.91122    0.01630    1.000
    H82      H        0.95520    0.90170    0.00400    1.000
    H83      H        0.90820    0.93540    0.01490    1.000
    H84      H        0.84830    0.90370    0.98680    1.000
    C105     C        0.79680    0.79849    0.14840    1.000
    H85      H        0.73350    0.79610    0.12390    1.000
    H86      H        0.80830    0.78680    0.18890    1.000
    H87      H        0.83440    0.78920    0.12420    1.000
    C106     C        0.73190    0.90706    0.29000    1.000
    H88      H        0.74760    0.89660    0.33190    1.000
    H89      H        0.67280    0.89930    0.26430    1.000
    H90      H        0.73060    0.93110    0.29490    1.000
    C107     C        0.11790    0.93290    0.26550    1.000
    H91      H        0.11790    0.95710    0.26320    1.000
    H92      H        0.15920    0.92400    0.24380    1.000
    H93      H        0.13730    0.92600    0.31010    1.000
    C108     C        0.71700    0.69828    0.14500    1.000
    H94      H        0.72540    0.68720    0.18590    1.000
    H95      H        0.77090    0.71110    0.14650    1.000
    H96      H        0.70670    0.68170    0.11120    1.000
    Cu7      Cu       0.70087    0.76352    0.79715    1.000
    Cu8      Cu       0.80853    0.71661    0.86629    1.000
    Cu9      Cu       0.48137    0.00783    0.05409    1.000
    O49      O        0.86274    0.71398    0.79470    1.000
    O50      O        0.70978    0.68592    0.82073    1.000
    O51      O        0.80174    0.79368    0.83695    1.000
    O52      O        0.39906    0.96917    0.03408    1.000
    O53      O        0.24304    0.77347    0.42937    1.000
    O54      O        0.15578    0.73207    0.37232    1.000
    O55      O        0.76524    0.75151    0.73352    1.000
    O56      O        0.61478    0.72688    0.76690    1.000
    O57      O        0.89345    0.75415    0.89887    1.000
    C109     C        0.38647    0.95257    0.98265    1.000
    C110     C        0.83472    0.73277    0.74572    1.000
    C111     C        0.63408    0.69654    0.78303    1.000
    C112     C        0.18267    0.75078    0.42082    1.000
    C113     C        0.96585    0.71365    0.70768    1.000
    H97      H        0.98320    0.69880    0.74250    1.000
    C114     C        0.99217    0.73836    0.61292    1.000
    C115     C        0.04069    0.79861    0.92815    1.000
    H98      H        0.05210    0.77620    0.94040    1.000
    C116     C        0.04506    0.74048    0.56539    1.000
    C117     C        0.17083    0.88030    0.94064    1.000
    C118     C        0.91528    0.75897    0.60486    1.000
    C119     C        0.25735    0.92415    0.00870    1.000
    H99      H        0.26810    0.93790    0.04510    1.000
    C120     C        0.22770    0.88292    0.90049    1.000
    C121     C        0.01610    0.71583    0.66479    1.000
    C122     C        0.09416    0.85529    0.92509    1.000
    C123     C        0.11120    0.82147    0.94183    1.000
    C124     C        0.18670    0.90105    0.99483    1.000
    C125     C        0.88847    0.73395    0.69868    1.000
    C126     C        0.87736    0.78372    0.87680    1.000
    C127     C        0.29766    0.90636    0.91383    1.000
    H100     H        0.33450    0.90840    0.88670    1.000
    C128     C        0.86282    0.75614    0.64704    1.000
    H101     H        0.81040    0.76920    0.64060    1.000
    C129     C        0.95218    0.80914    0.89599    1.000
    C130     C        0.01706    0.72153    0.50814    1.000
    C131     C        0.47383    0.68199    0.72275    1.000
    H102     H        0.46100    0.70490    0.71930    1.000
    C132     C        0.31235    0.92678    0.96795    1.000
    C133     C        0.40540    0.65860    0.69481    1.000
    C134     C        0.56048    0.67082    0.75548    1.000
    C135     C        0.58100    0.63713    0.76050    1.000
    H103     H        0.64010    0.63010    0.78240    1.000
    C136     C        0.42440    0.62441    0.70037    1.000
    C137     C        0.35197    0.59963    0.66802    1.000
    C138     C        0.93392    0.84264    0.87879    1.000
    H104     H        0.87440    0.84950    0.85730    1.000
    C139     C        0.11930    0.76234    0.57548    1.000
    C140     C        0.00435    0.86583    0.89363    1.000
    C141     C        0.51430    0.61371    0.73330    1.000
    O58      O        0.08278    0.52222    0.59776    1.000
    O59      O        0.11622    0.53411    0.50594    1.000
    O60      O        0.43030    0.95593    0.94177    1.000
    O61      O        0.20069    0.81422    0.97337    1.000
    O62      O        0.31813    0.66646    0.66058    1.000
    O63      O        0.12985    0.89583    0.03204    1.000
    O64      O        0.20731    0.86160    0.84895    1.000
    O65      O        0.89677    0.78022    0.55261    1.000
    O66      O        0.09209    0.69675    0.66823    1.000
    O67      O        0.99430    0.89910    0.87926    1.000
    C142     C        0.16539    0.76527    0.52921    1.000
    H105     H        0.21520    0.77970    0.53630    1.000
    C143     C        0.06347    0.72430    0.46127    1.000
    H106     H        0.04560    0.71150    0.42350    1.000
    C144     C        0.27296    0.56717    0.57329    1.000
    H107     H        0.26840    0.55970    0.53160    1.000
    O68      O        0.52662    0.57959    0.73442    1.000
    O69      O        0.94387    0.70119    0.50193    1.000
    O70      O        0.41063    0.59926    0.58034    1.000
    O71      O        0.14125    0.78006    0.63241    1.000
    C145     C        0.20882    0.55746    0.60316    1.000
    C146     C        0.13688    0.74663    0.47268    1.000
    C147     C        0.21659    0.56744    0.66625    1.000
    H108     H        0.17490    0.55990    0.68690    1.000
    C148     C        0.12941    0.53608    0.56660    1.000
    C149     C        0.34436    0.58819    0.60620    1.000
    C150     C        0.28776    0.58883    0.69798    1.000
    C151     C        0.22100    0.78004    0.99234    1.000
    H109     H        0.28530    0.77780    0.01410    1.000
    H110     H        0.18700    0.77340    0.02120    1.000
    H111     H        0.20430    0.76590    0.95460    1.000
    C152     C        0.90860    0.68315    0.44292    1.000
    H112     H        0.85730    0.66980    0.44500    1.000
    H113     H        0.88940    0.69880    0.40750    1.000
    H114     H        0.95540    0.66870    0.43640    1.000
    C153     C        0.11980    0.67362    0.71950    1.000
    H115     H        0.17330    0.66180    0.71680    1.000
    H116     H        0.13380    0.68540    0.76010    1.000
    H117     H        0.07140    0.65780    0.71670    1.000
    C154     C        0.82080    0.80256    0.54351    1.000
    H118     H        0.81470    0.81610    0.50570    1.000
    H119     H        0.76580    0.78970    0.53790    1.000
    H120     H        0.83070    0.81680    0.58080    1.000
    C155     C        0.14420    0.91616    0.08903    1.000
    H121     H        0.10020    0.91020    0.11090    1.000
    H122     H        0.20490    0.91250    0.11750    1.000
    H123     H        0.13690    0.93950    0.07690    1.000
    C156     C        0.26270    0.86419    0.80610    1.000
    H124     H        0.24220    0.84810    0.77160    1.000
    H125     H        0.25760    0.88650    0.78820    1.000
    H126     H        0.32550    0.85970    0.82980    1.000
    C157     C        0.90490    0.91031    0.84340    1.000
    H127     H        0.90610    0.93410    0.83620    1.000
    H128     H        0.88560    0.89880    0.80240    1.000
    H129     H        0.86280    0.90550    0.86750    1.000
    O72      O        0.29857    0.60156    0.75849    1.000
    C158     C        0.40510    0.58878    0.51630    1.000
    H130     H        0.45520    0.59830    0.50400    1.000
    H131     H        0.40820    0.56460    0.51490    1.000
    H132     H        0.34830    0.59630    0.48680    1.000
    C159     C        0.29680    0.70151    0.64840    1.000
    H133     H        0.23350    0.70390    0.62390    1.000
    H134     H        0.30830    0.71320    0.68890    1.000
    H135     H        0.33440    0.71080    0.62420    1.000
    C160     C        0.23190    0.59294    0.79000    1.000
    H136     H        0.24760    0.60340    0.83190    1.000
    H137     H        0.17280    0.60070    0.76430    1.000
    H138     H        0.23060    0.56890    0.79490    1.000
    C161     C        0.61790    0.56710    0.76550    1.000
    H139     H        0.61790    0.54290    0.76320    1.000
    H140     H        0.65920    0.57600    0.74380    1.000
    H141     H        0.63730    0.57400    0.81010    1.000
    C162     C        0.21700    0.80172    0.64500    1.000
    H142     H        0.22540    0.81280    0.68590    1.000
    H143     H        0.27090    0.78890    0.64650    1.000
    H144     H        0.20670    0.81830    0.61120    1.000
    Cu10     Cu       0.79913    0.26352    0.70285    1.000
    Cu11     Cu       0.69147    0.21661    0.63371    1.000
    Cu12     Cu       0.01863    0.50783    0.44591    1.000
    O73      O        0.63726    0.21398    0.70530    1.000
    O74      O        0.79022    0.18592    0.67927    1.000
    O75      O        0.69826    0.29368    0.66305    1.000
    O76      O        0.10094    0.46917    0.46592    1.000
    O77      O        0.25696    0.27347    0.07063    1.000
    O78      O        0.34422    0.23207    0.12768    1.000
    O79      O        0.73476    0.25151    0.76648    1.000
    O80      O        0.88522    0.22688    0.73310    1.000
    O81      O        0.60655    0.25415    0.60113    1.000
    C163     C        0.11353    0.45257    0.51735    1.000
    C164     C        0.66528    0.23277    0.75428    1.000
    C165     C        0.86592    0.19654    0.71697    1.000
    C166     C        0.31733    0.25078    0.07918    1.000
    C167     C        0.53415    0.21365    0.79232    1.000
    H145     H        0.51680    0.19880    0.75750    1.000
    C168     C        0.50783    0.23836    0.88708    1.000
    C169     C        0.45931    0.29861    0.57185    1.000
    H146     H        0.44790    0.27620    0.55960    1.000
    C170     C        0.45494    0.24048    0.93461    1.000
    C171     C        0.32917    0.38030    0.55936    1.000
    C172     C        0.58472    0.25897    0.89514    1.000
    C173     C        0.24265    0.42415    0.49130    1.000
    H147     H        0.23190    0.43790    0.45490    1.000
    C174     C        0.27230    0.38292    0.59951    1.000
    C175     C        0.48390    0.21583    0.83521    1.000
    C176     C        0.40584    0.35529    0.57491    1.000
    C177     C        0.38880    0.32147    0.55817    1.000
    C178     C        0.31330    0.40105    0.50517    1.000
    C179     C        0.61153    0.23395    0.80132    1.000
    C180     C        0.62264    0.28372    0.62320    1.000
    C181     C        0.20234    0.40636    0.58617    1.000
    H148     H        0.16550    0.40840    0.61330    1.000
    C182     C        0.63718    0.25614    0.85296    1.000
    H149     H        0.68960    0.26920    0.85940    1.000
    C183     C        0.54782    0.30914    0.60401    1.000
    C184     C        0.48294    0.22153    0.99186    1.000
    C185     C        0.02617    0.18199    0.77725    1.000
    H150     H        0.03900    0.20490    0.78070    1.000
    C186     C        0.18765    0.42678    0.53205    1.000
    C187     C        0.09460    0.15860    0.80519    1.000
    C188     C        0.93952    0.17082    0.74452    1.000
    C189     C        0.91900    0.13713    0.73950    1.000
    H151     H        0.85990    0.13010    0.71760    1.000
    C190     C        0.07560    0.12441    0.79963    1.000
    C191     C        0.14803    0.09963    0.83198    1.000
    C192     C        0.56608    0.34264    0.62121    1.000
    H152     H        0.62560    0.34950    0.64270    1.000
    C193     C        0.38070    0.26234    0.92452    1.000
    C194     C        0.49565    0.36583    0.60637    1.000
    C195     C        0.98570    0.11371    0.76670    1.000
    O82      O        0.41722    0.02222    0.90224    1.000
    O83      O        0.38378    0.03411    0.99406    1.000
    O84      O        0.06970    0.45593    0.55823    1.000
    O85      O        0.29931    0.31422    0.52663    1.000
    O86      O        0.18187    0.16646    0.83942    1.000
    O87      O        0.37015    0.39583    0.46796    1.000
    O88      O        0.29269    0.36160    0.65105    1.000
    O89      O        0.60323    0.28022    0.94739    1.000
    O90      O        0.40791    0.19675    0.83177    1.000
    O91      O        0.50570    0.39910    0.62074    1.000
    C196     C        0.33461    0.26527    0.97079    1.000
    H153     H        0.28480    0.27970    0.96370    1.000
    C197     C        0.43653    0.22430    0.03873    1.000
    H154     H        0.45440    0.21150    0.07650    1.000
    C198     C        0.22704    0.06717    0.92671    1.000
    H155     H        0.23160    0.05970    0.96840    1.000
    O92      O        0.97338    0.07959    0.76558    1.000
    O93      O        0.55613    0.20119    0.99807    1.000
    O94      O        0.08937    0.09926    0.91966    1.000
    O95      O        0.35875    0.28006    0.86759    1.000
    C199     C        0.29118    0.05746    0.89684    1.000
    C200     C        0.36312    0.24663    0.02732    1.000
    C201     C        0.28341    0.06744    0.83375    1.000
    H156     H        0.32510    0.05990    0.81310    1.000
    C202     C        0.37059    0.03608    0.93340    1.000
    C203     C        0.15564    0.08819    0.89380    1.000
    C204     C        0.21224    0.08883    0.80202    1.000
    C205     C        0.27900    0.28004    0.50766    1.000
    H157     H        0.21470    0.27780    0.48590    1.000
    H158     H        0.31300    0.27340    0.47880    1.000
    H159     H        0.29570    0.26590    0.54540    1.000
    C206     C        0.59140    0.18315    0.05708    1.000
    H160     H        0.64270    0.16980    0.05500    1.000
    H161     H        0.61060    0.19880    0.09250    1.000
    H162     H        0.54460    0.16870    0.06360    1.000
    C207     C        0.38020    0.17362    0.78050    1.000
    H163     H        0.32670    0.16180    0.78320    1.000
    H164     H        0.36620    0.18540    0.73990    1.000
    H165     H        0.42860    0.15780    0.78330    1.000
    C208     C        0.67920    0.30256    0.95649    1.000
    H166     H        0.68530    0.31610    0.99430    1.000
    H167     H        0.73420    0.28970    0.96210    1.000
    H168     H        0.66930    0.31680    0.91920    1.000
    C209     C        0.35580    0.41616    0.41097    1.000
    H169     H        0.39980    0.41020    0.38910    1.000
    H170     H        0.29510    0.41250    0.38250    1.000
    H171     H        0.36310    0.43950    0.42310    1.000
    C210     C        0.23730    0.36419    0.69390    1.000
    H172     H        0.25780    0.34810    0.72840    1.000
    H173     H        0.24240    0.38650    0.71180    1.000
    H174     H        0.17450    0.35970    0.67020    1.000
    C211     C        0.59510    0.41031    0.65660    1.000
    H175     H        0.59390    0.43410    0.66380    1.000
    H176     H        0.61440    0.39880    0.69760    1.000
    H177     H        0.63720    0.40550    0.63250    1.000
    O96      O        0.20143    0.10156    0.74151    1.000
    C212     C        0.09490    0.08878    0.98370    1.000
    H178     H        0.04480    0.09830    0.99600    1.000
    H179     H        0.09180    0.06460    0.98510    1.000
    H180     H        0.15170    0.09630    0.01320    1.000
    C213     C        0.20320    0.20151    0.85160    1.000
    H181     H        0.26650    0.20390    0.87610    1.000
    H182     H        0.19170    0.21320    0.81110    1.000
    H183     H        0.16560    0.21080    0.87580    1.000
    C214     C        0.26810    0.09294    0.71000    1.000
    H184     H        0.25240    0.10340    0.66810    1.000
    H185     H        0.32720    0.10070    0.73570    1.000
    H186     H        0.26940    0.06890    0.70510    1.000
    C215     C        0.88210    0.06710    0.73450    1.000
    H187     H        0.88210    0.04290    0.73680    1.000
    H188     H        0.84080    0.07600    0.75620    1.000
    H189     H        0.86270    0.07400    0.68990    1.000
    C216     C        0.28300    0.30172    0.85500    1.000
    H190     H        0.27460    0.31280    0.81410    1.000
    H191     H        0.22910    0.28890    0.85350    1.000
    H192     H        0.29330    0.31830    0.88880    1.000
