# CIF file generated by openbabel 3.1.0, see https://openbabel.org
data_I
_chemical_name_common 'image0'
_cell_length_a 13.1587
_cell_length_b 13.1587
_cell_length_c 16.1012
_cell_angle_alpha 90
_cell_angle_beta 90
_cell_angle_gamma 120
_space_group_name_H-M_alt 'P 1'
_space_group_name_Hall 'P 1'
loop_
    _symmetry_equiv_pos_as_xyz
    x,y,z
loop_
    _atom_site_label
    _atom_site_type_symbol
    _atom_site_fract_x
    _atom_site_fract_y
    _atom_site_fract_z
    _atom_site_occupancy
    P1       P        0.14800    0.67150    0.14720    1.000
    Al1      Al       0.12190    0.45900    0.60630    1.000
    Al2      Al       0.11270    0.45010    0.24290    1.000
    P2       P        0.15840    0.68180    0.70640    1.000
    Si1      Si       0.21200    0.52760    0.42370    1.000
    O1       O        0.14580    0.58650    0.21560    1.000
    O2       O        0.02030    0.64040    0.12370    1.000
    O3       O        0.21910    0.80390    0.17960    1.000
    O4       O        0.21830    0.67050    0.06950    1.000
    O5       O        0.23710    0.81790    0.68220    1.000
    O6       O        0.14790    0.59180    0.63830    1.000
    O7       O        0.13800    0.45340    0.50190    1.000
    O8       O        0.03600    0.66680    0.73600    1.000
    O9       O        0.15070    0.46300    0.33880    1.000
    O10      O        0.21440    0.67520    0.79380    1.000
    O11      O        0.34400    0.55480    0.42550    1.000
    P3       P        0.32850    0.47650    0.14720    1.000
    Al3      Al       0.54100    0.66290    0.60630    1.000
    Al4      Al       0.54990    0.66260    0.24290    1.000
    P4       P        0.31820    0.47660    0.70640    1.000
    Si2      Si       0.47240    0.68440    0.42370    1.000
    O12      O        0.41350    0.55930    0.21560    1.000
    O13      O        0.35960    0.37990    0.12370    1.000
    O14      O        0.19610    0.41520    0.17960    1.000
    O15      O        0.32950    0.54780    0.06950    1.000
    O16      O        0.18210    0.41920    0.68220    1.000
    O17      O        0.40820    0.55610    0.63830    1.000
    O18      O        0.54660    0.68460    0.50190    1.000
    O19      O        0.33320    0.36920    0.73600    1.000
    O20      O        0.53700    0.68770    0.33880    1.000
    O21      O        0.32480    0.53920    0.79380    1.000
    O22      O        0.44520    0.78920    0.42550    1.000
    P5       P        0.52350    0.85200    0.14720    1.000
    Al5      Al       0.33710    0.87810    0.60630    1.000
    Al6      Al       0.33740    0.88730    0.24290    1.000
    P6       P        0.52340    0.84160    0.70640    1.000
    Si3      Si       0.31560    0.78800    0.42370    1.000
    O23      O        0.44070    0.85420    0.21560    1.000
    O24      O        0.62010    0.97970    0.12370    1.000
    O25      O        0.58480    0.78090    0.17960    1.000
    O26      O        0.45220    0.78170    0.06950    1.000
    O27      O        0.58080    0.76290    0.68220    1.000
    O28      O        0.44390    0.85210    0.63830    1.000
    O29      O        0.31540    0.86200    0.50190    1.000
    O30      O        0.63080    0.96400    0.73600    1.000
    O31      O        0.31230    0.84930    0.33880    1.000
    O32      O        0.46080    0.78560    0.79380    1.000
    O33      O        0.21080    0.65600    0.42550    1.000
    P7       P        0.85200    0.32850    0.64720    1.000
    Al7      Al       0.87810    0.54100    0.10630    1.000
    Al8      Al       0.88730    0.54990    0.74290    1.000
    P8       P        0.84160    0.31820    0.20640    1.000
    Si4      Si       0.78800    0.47240    0.92370    1.000
    O34      O        0.85420    0.41350    0.71560    1.000
    O35      O        0.97970    0.35960    0.62370    1.000
    O36      O        0.78090    0.19610    0.67960    1.000
    O37      O        0.78170    0.32950    0.56950    1.000
    O38      O        0.76290    0.18210    0.18220    1.000
    O39      O        0.85210    0.40820    0.13830    1.000
    O40      O        0.86200    0.54660    0.00190    1.000
    O41      O        0.96400    0.33320    0.23600    1.000
    O42      O        0.84930    0.53700    0.83880    1.000
    O43      O        0.78560    0.32480    0.29380    1.000
    O44      O        0.65600    0.44520    0.92550    1.000
    P9       P        0.67150    0.52350    0.64720    1.000
    Al9      Al       0.45900    0.33710    0.10630    1.000
    Al10     Al       0.45010    0.33740    0.74290    1.000
    P10      P        0.68180    0.52340    0.20640    1.000
    Si5      Si       0.52760    0.31560    0.92370    1.000
    O45      O        0.58650    0.44070    0.71560    1.000
    O46      O        0.64040    0.62010    0.62370    1.000
    O47      O        0.80390    0.58480    0.67960    1.000
    O48      O        0.67050    0.45220    0.56950    1.000
    O49      O        0.81790    0.58080    0.18220    1.000
    O50      O        0.59180    0.44390    0.13830    1.000
    O51      O        0.45340    0.31540    0.00190    1.000
    O52      O        0.66680    0.63080    0.23600    1.000
    O53      O        0.46300    0.31230    0.83880    1.000
    O54      O        0.67520    0.46080    0.29380    1.000
    O55      O        0.55480    0.21080    0.92550    1.000
    P11      P        0.47650    0.14800    0.64720    1.000
    Al11     Al       0.66290    0.12190    0.10630    1.000
    Al12     Al       0.66260    0.11270    0.74290    1.000
    P12      P        0.47660    0.15840    0.20640    1.000
    Si6      Si       0.68440    0.21200    0.92370    1.000
    O56      O        0.55930    0.14580    0.71560    1.000
    O57      O        0.37990    0.02030    0.62370    1.000
    O58      O        0.41520    0.21910    0.67960    1.000
    O59      O        0.54780    0.21830    0.56950    1.000
    O60      O        0.41920    0.23710    0.18220    1.000
    O61      O        0.55610    0.14790    0.13830    1.000
    O62      O        0.68460    0.13800    0.00190    1.000
    O63      O        0.36920    0.03600    0.23600    1.000
    O64      O        0.68770    0.15070    0.83880    1.000
    O65      O        0.53920    0.21440    0.29380    1.000
    O66      O        0.78920    0.34400    0.92550    1.000
    Al13     Al       0.33333    0.66667    0.01550    1.000
    Al14     Al       0.33333    0.66667    0.84280    1.000
    Al15     Al       0.66667    0.33333    0.51550    1.000
    Al16     Al       0.66667    0.33333    0.34280    1.000
