# CIF file generated by openbabel 3.1.0, see https://openbabel.org
data_I
_chemical_name_common 'MUXJAQ01_clean'
_cell_length_a 7.6506
_cell_length_b 9.8596
_cell_length_c 14.8519
_cell_angle_alpha 90
_cell_angle_beta 98.389
_cell_angle_gamma 90
_space_group_name_H-M_alt 'P 1'
_space_group_name_Hall 'P 1'
loop_
    _symmetry_equiv_pos_as_xyz
    x,y,z
loop_
    _atom_site_label
    _atom_site_type_symbol
    _atom_site_fract_x
    _atom_site_fract_y
    _atom_site_fract_z
    _atom_site_occupancy
    Eu1      Eu       0.85270    0.45549    0.63954    1.000
    Eu2      Eu       0.64730    0.95549    0.86046    1.000
    Eu3      Eu       0.14730    0.54451    0.36046    1.000
    Eu4      Eu       0.35270    0.04451    0.13954    1.000
    H1       H        0.88460    0.69850    0.01600    1.000
    H2       H        0.67420    0.38750    0.86520    1.000
    H3       H        0.70390    0.38930    0.13670    1.000
    H4       H        0.61540    0.19850    0.48400    1.000
    H5       H        0.82580    0.88750    0.63480    1.000
    H6       H        0.79610    0.88930    0.36330    1.000
    H7       H        0.11540    0.30150    0.98400    1.000
    H8       H        0.32580    0.61250    0.13480    1.000
    H9       H        0.29610    0.61070    0.86330    1.000
    H10      H        0.38460    0.80150    0.51600    1.000
    H11      H        0.17420    0.11250    0.36520    1.000
    H12      H        0.20390    0.11070    0.63670    1.000
    C1       C        0.83070    0.61370    0.01250    1.000
    C2       C        0.77910    0.55820    0.92630    1.000
    C3       C        0.70410    0.43020    0.92120    1.000
    C4       C        0.67410    0.36680    0.00080    1.000
    C5       C        0.72620    0.43160    0.08360    1.000
    C6       C        0.80760    0.63700    0.84410    1.000
    C7       C        0.58800    0.22950    0.99930    1.000
    C8       C        0.45660    0.53140    0.53880    1.000
    C9       C        0.66930    0.11370    0.48750    1.000
    C10      C        0.72090    0.05820    0.57370    1.000
    C11      C        0.79590    0.93020    0.57880    1.000
    C12      C        0.82590    0.86680    0.49920    1.000
    C13      C        0.77380    0.93160    0.41640    1.000
    C14      C        0.69240    0.13700    0.65590    1.000
    C15      C        0.91200    0.72950    0.50070    1.000
    C16      C        0.04340    0.03140    0.96120    1.000
    C17      C        0.16930    0.38630    0.98750    1.000
    C18      C        0.22090    0.44180    0.07370    1.000
    C19      C        0.29590    0.56980    0.07880    1.000
    C20      C        0.32590    0.63320    0.99920    1.000
    C21      C        0.27380    0.56840    0.91640    1.000
    C22      C        0.19240    0.36300    0.15590    1.000
    C23      C        0.41200    0.77050    0.00070    1.000
    C24      C        0.54340    0.46860    0.46120    1.000
    C25      C        0.33070    0.88630    0.51250    1.000
    C26      C        0.27910    0.94180    0.42630    1.000
    C27      C        0.20410    0.06980    0.42120    1.000
    C28      C        0.17410    0.13320    0.50080    1.000
    C29      C        0.22620    0.06840    0.58360    1.000
    C30      C        0.30760    0.86300    0.34410    1.000
    C31      C        0.08800    0.27050    0.49930    1.000
    C32      C        0.95660    0.96860    0.03880    1.000
    N1       N        0.80750    0.55300    0.08990    1.000
    N2       N        0.69250    0.05300    0.41010    1.000
    N3       N        0.19250    0.44700    0.91010    1.000
    N4       N        0.30750    0.94700    0.58990    1.000
    O1       O        0.80420    0.57730    0.76981    1.000
    O2       O        0.83400    0.76400    0.85353    1.000
    O3       O        0.58950    0.15900    0.92893    1.000
    O4       O        0.52240    0.19390    0.06779    1.000
    O5       O        0.55290    0.54900    0.61357    1.000
    O6       O        0.29640    0.56200    0.52042    1.000
    O7       O        0.69580    0.07730    0.73019    1.000
    O8       O        0.66600    0.26400    0.64647    1.000
    O9       O        0.91050    0.65900    0.57107    1.000
    O10      O        0.97760    0.69390    0.43221    1.000
    O11      O        0.94710    0.04900    0.88643    1.000
    O12      O        0.20360    0.06200    0.97958    1.000
    O13      O        0.19580    0.42270    0.23019    1.000
    O14      O        0.16600    0.23600    0.14647    1.000
    O15      O        0.41050    0.84100    0.07107    1.000
    O16      O        0.47760    0.80610    0.93221    1.000
    O17      O        0.44710    0.45100    0.38643    1.000
    O18      O        0.70360    0.43800    0.47958    1.000
    O19      O        0.30420    0.92270    0.26981    1.000
    O20      O        0.33400    0.73600    0.35353    1.000
    O21      O        0.08950    0.34100    0.42893    1.000
    O22      O        0.02240    0.30610    0.56779    1.000
    O23      O        0.05290    0.95100    0.11357    1.000
    O24      O        0.79640    0.93800    0.02042    1.000
