# CIF file generated by openbabel 3.1.0, see https://openbabel.org
data_I
_chemical_name_common 'image0'
_cell_length_a 10.4157
_cell_length_b 11.2176
_cell_length_c 11.806
_cell_angle_alpha 93.298
_cell_angle_beta 109.635
_cell_angle_gamma 106.949
_space_group_name_H-M_alt 'P 1'
_space_group_name_Hall 'P 1'
loop_
    _symmetry_equiv_pos_as_xyz
    x,y,z
loop_
    _atom_site_label
    _atom_site_type_symbol
    _atom_site_fract_x
    _atom_site_fract_y
    _atom_site_fract_z
    _atom_site_occupancy
    Eu1      Eu       0.39272    0.46538    0.81718    1.000
    N1       N        0.89100    0.13200    0.62900    1.000
    N2       N        0.79400    0.34200    0.78100    1.000
    N3       N        0.55700    0.90700    0.22500    1.000
    N4       N        0.42640    0.57720    0.64600    1.000
    N5       N        0.52740    0.65280    0.51470    1.000
    C1       C        0.19480    0.23990    0.65020    1.000
    C2       C        0.09240    0.11640    0.57530    1.000
    C3       C        0.13260    0.05840    0.49310    1.000
    H1       H        0.22170    0.09650    0.48710    1.000
    C4       C        0.96000    0.05790    0.58160    1.000
    C5       C        0.70350    0.49520    0.92100    1.000
    C6       C        0.85660    0.49880    0.96050    1.000
    C7       C        0.89850    0.42420    0.89300    1.000
    C8       C        0.95740    0.57510    0.06570    1.000
    H2       H        0.93090    0.62750    0.11100    1.000
    C9       C        0.52530    0.75010    0.99980    1.000
    C10      C        0.51310    0.87930    0.00410    1.000
    C11      C        0.49080    0.93140    0.89570    1.000
    H3       H        0.48830    0.88630    0.82590    1.000
    C12      C        0.52780    0.94820    0.10800    1.000
    C13      C        0.38000    0.66840    0.59380    1.000
    H4       H        0.31170    0.69530    0.61250    1.000
    C14      C        0.43700    0.71850    0.51290    1.000
    C15      C        0.52100    0.56980    0.59310    1.000
    H5       H        0.57450    0.51510    0.60840    1.000
    C16      C        0.42500    0.82000    0.43700    1.000
    H6       H        0.48030    0.82120    0.38590    1.000
    H7       H        0.46210    0.90100    0.48940    1.000
    H8       H        0.32580    0.80420    0.38670    1.000
    O1       O        0.15990    0.28860    0.73230    1.000
    O2       O        0.30610    0.29410    0.63810    1.000
    O3       O        0.62610    0.46720    0.81200    1.000
    O4       O        0.65790    0.52450    0.00430    1.000
    O5       O        0.49160    0.68440    0.89840    1.000
    O6       O        0.56830    0.71710    0.10090    1.000
    Eu2      Eu       0.60728    0.53462    0.18282    1.000
    N6       N        0.10900    0.86800    0.37100    1.000
    N7       N        0.20600    0.65800    0.21900    1.000
    N8       N        0.44300    0.09300    0.77500    1.000
    N9       N        0.57360    0.42280    0.35400    1.000
    N10      N        0.47260    0.34720    0.48530    1.000
    C17      C        0.80520    0.76010    0.34980    1.000
    C18      C        0.90760    0.88360    0.42470    1.000
    C19      C        0.86740    0.94160    0.50690    1.000
    H9       H        0.77830    0.90350    0.51290    1.000
    C20      C        0.04000    0.94210    0.41840    1.000
    C21      C        0.29650    0.50480    0.07900    1.000
    C22      C        0.14340    0.50120    0.03950    1.000
    C23      C        0.10150    0.57580    0.10700    1.000
    C24      C        0.04260    0.42490    0.93430    1.000
    H10      H        0.06910    0.37250    0.88900    1.000
    C25      C        0.47470    0.24990    0.00020    1.000
    C26      C        0.48690    0.12070    0.99590    1.000
    C27      C        0.50920    0.06860    0.10430    1.000
    H11      H        0.51170    0.11370    0.17410    1.000
    C28      C        0.47220    0.05180    0.89200    1.000
    C29      C        0.62000    0.33160    0.40620    1.000
    H12      H        0.68830    0.30470    0.38750    1.000
    C30      C        0.56300    0.28150    0.48710    1.000
    C31      C        0.47900    0.43020    0.40690    1.000
    H13      H        0.42550    0.48490    0.39160    1.000
    C32      C        0.57500    0.18000    0.56300    1.000
    H14      H        0.51970    0.17880    0.61410    1.000
    H15      H        0.53790    0.09900    0.51060    1.000
    H16      H        0.67420    0.19580    0.61330    1.000
    O7       O        0.84010    0.71140    0.26770    1.000
    O8       O        0.69390    0.70590    0.36190    1.000
    O9       O        0.37390    0.53280    0.18800    1.000
    O10      O        0.34210    0.47550    0.99570    1.000
    O11      O        0.50840    0.31560    0.10160    1.000
    O12      O        0.43170    0.28290    0.89910    1.000
