# CIF file generated by openbabel 3.1.0, see https://openbabel.org
data_I
_chemical_name_common 'image0'
_cell_length_a 16.6446
_cell_length_b 16.6446
_cell_length_c 11.9628
_cell_angle_alpha 90
_cell_angle_beta 90
_cell_angle_gamma 90
_space_group_name_H-M_alt 'P 1'
_space_group_name_Hall 'P 1'
loop_
    _symmetry_equiv_pos_as_xyz
    x,y,z
loop_
    _atom_site_label
    _atom_site_type_symbol
    _atom_site_fract_x
    _atom_site_fract_y
    _atom_site_fract_z
    _atom_site_occupancy
    O1       O        0.39389    0.51183    0.61470    1.000
    C1       C        0.31870    0.59120    0.79220    1.000
    H1       H        0.30990    0.53540    0.78830    1.000
    C2       C        0.27370    0.63800    0.86510    1.000
    H2       H        0.23570    0.61300    0.91170    1.000
    C3       C        0.29180    0.61000    0.73670    1.000
    H3       H        0.26830    0.56850    0.69460    1.000
    C4       C        0.24510    0.65580    0.80750    1.000
    H4       H        0.18950    0.64670    0.81360    1.000
    O2       O        0.60611    0.48817    0.61470    1.000
    C5       C        0.68130    0.40880    0.79220    1.000
    H5       H        0.69010    0.46460    0.78830    1.000
    C6       C        0.72630    0.36200    0.86510    1.000
    H6       H        0.76430    0.38700    0.91170    1.000
    C7       C        0.70820    0.39000    0.73670    1.000
    H7       H        0.73170    0.43150    0.69460    1.000
    C8       C        0.75490    0.34420    0.80750    1.000
    H8       H        0.81050    0.35330    0.81360    1.000
    O3       O        0.98817    0.89389    0.11470    1.000
    C9       C        0.90880    0.81870    0.29220    1.000
    H9       H        0.96460    0.80990    0.28830    1.000
    C10      C        0.86200    0.77370    0.36510    1.000
    H10      H        0.88700    0.73570    0.41170    1.000
    C11      C        0.89000    0.79180    0.23670    1.000
    H11      H        0.93150    0.76830    0.19460    1.000
    C12      C        0.84420    0.74510    0.30750    1.000
    H12      H        0.85330    0.68950    0.31360    1.000
    O4       O        0.01183    0.10611    0.11470    1.000
    C13      C        0.09120    0.18130    0.29220    1.000
    H13      H        0.03540    0.19010    0.28830    1.000
    C14      C        0.13800    0.22630    0.36510    1.000
    H14      H        0.11300    0.26430    0.41170    1.000
    C15      C        0.11000    0.20820    0.23670    1.000
    H15      H        0.06850    0.23170    0.19460    1.000
    C16      C        0.15580    0.25490    0.30750    1.000
    H16      H        0.14670    0.31050    0.31360    1.000
    O5       O        0.10611    0.01183    0.88530    1.000
    C17      C        0.18130    0.09120    0.70780    1.000
    H17      H        0.19010    0.03540    0.71170    1.000
    C18      C        0.22630    0.13800    0.63490    1.000
    H18      H        0.26430    0.11300    0.58830    1.000
    C19      C        0.20820    0.11000    0.76330    1.000
    H19      H        0.23170    0.06850    0.80540    1.000
    C20      C        0.25490    0.15580    0.69250    1.000
    H20      H        0.31050    0.14670    0.68640    1.000
    O6       O        0.89389    0.98817    0.88530    1.000
    C21      C        0.81870    0.90880    0.70780    1.000
    H21      H        0.80990    0.96460    0.71170    1.000
    C22      C        0.77370    0.86200    0.63490    1.000
    H22      H        0.73570    0.88700    0.58830    1.000
    C23      C        0.79180    0.89000    0.76330    1.000
    H23      H        0.76830    0.93150    0.80540    1.000
    C24      C        0.74510    0.84420    0.69250    1.000
    H24      H        0.68950    0.85330    0.68640    1.000
    O7       O        0.51183    0.39389    0.38530    1.000
    C25      C        0.59120    0.31870    0.20780    1.000
    H25      H        0.53540    0.30990    0.21170    1.000
    C26      C        0.63800    0.27370    0.13490    1.000
    H26      H        0.61300    0.23570    0.08830    1.000
    C27      C        0.61000    0.29180    0.26330    1.000
    H27      H        0.56850    0.26830    0.30540    1.000
    C28      C        0.65580    0.24510    0.19250    1.000
    H28      H        0.64670    0.18950    0.18640    1.000
    O8       O        0.48817    0.60611    0.38530    1.000
    C29      C        0.40880    0.68130    0.20780    1.000
    H29      H        0.46460    0.69010    0.21170    1.000
    C30      C        0.36200    0.72630    0.13490    1.000
    H30      H        0.38700    0.76430    0.08830    1.000
    C31      C        0.39000    0.70820    0.26330    1.000
    H31      H        0.43150    0.73170    0.30540    1.000
    C32      C        0.34420    0.75490    0.19250    1.000
    H32      H        0.35330    0.81050    0.18640    1.000
    O9       O        0.60611    0.48817    0.38530    1.000
    C33      C        0.68130    0.40880    0.20780    1.000
    H33      H        0.69010    0.46460    0.21170    1.000
    C34      C        0.72630    0.36200    0.13490    1.000
    H34      H        0.76430    0.38700    0.08830    1.000
    C35      C        0.70820    0.39000    0.26330    1.000
    H35      H        0.73170    0.43150    0.30540    1.000
    C36      C        0.75490    0.34420    0.19250    1.000
    H36      H        0.81050    0.35330    0.18640    1.000
    O10      O        0.39389    0.51183    0.38530    1.000
    C37      C        0.31870    0.59120    0.20780    1.000
    H37      H        0.30990    0.53540    0.21170    1.000
    C38      C        0.27370    0.63800    0.13490    1.000
    H38      H        0.23570    0.61300    0.08830    1.000
    C39      C        0.29180    0.61000    0.26330    1.000
    H39      H        0.26830    0.56850    0.30540    1.000
    C40      C        0.24510    0.65580    0.19250    1.000
    H40      H        0.18950    0.64670    0.18640    1.000
    O11      O        0.01183    0.10611    0.88530    1.000
    C41      C        0.09120    0.18130    0.70780    1.000
    H41      H        0.03540    0.19010    0.71170    1.000
    C42      C        0.13800    0.22630    0.63490    1.000
    H42      H        0.11300    0.26430    0.58830    1.000
    C43      C        0.11000    0.20820    0.76330    1.000
    H43      H        0.06850    0.23170    0.80540    1.000
    C44      C        0.15580    0.25490    0.69250    1.000
    H44      H        0.14670    0.31050    0.68640    1.000
    O12      O        0.98817    0.89389    0.88530    1.000
    C45      C        0.90880    0.81870    0.70780    1.000
    H45      H        0.96460    0.80990    0.71170    1.000
    C46      C        0.86200    0.77370    0.63490    1.000
    H46      H        0.88700    0.73570    0.58830    1.000
    C47      C        0.89000    0.79180    0.76330    1.000
    H47      H        0.93150    0.76830    0.80540    1.000
    C48      C        0.84420    0.74510    0.69250    1.000
    H48      H        0.85330    0.68950    0.68640    1.000
    O13      O        0.89389    0.98817    0.11470    1.000
    C49      C        0.81870    0.90880    0.29220    1.000
    H49      H        0.80990    0.96460    0.28830    1.000
    C50      C        0.77370    0.86200    0.36510    1.000
    H50      H        0.73570    0.88700    0.41170    1.000
    C51      C        0.79180    0.89000    0.23670    1.000
    H51      H        0.76830    0.93150    0.19460    1.000
    C52      C        0.74510    0.84420    0.30750    1.000
    H52      H        0.68950    0.85330    0.31360    1.000
    O14      O        0.10611    0.01183    0.11470    1.000
    C53      C        0.18130    0.09120    0.29220    1.000
    H53      H        0.19010    0.03540    0.28830    1.000
    C54      C        0.22630    0.13800    0.36510    1.000
    H54      H        0.26430    0.11300    0.41170    1.000
    C55      C        0.20820    0.11000    0.23670    1.000
    H55      H        0.23170    0.06850    0.19460    1.000
    C56      C        0.25490    0.15580    0.30750    1.000
    H56      H        0.31050    0.14670    0.31360    1.000
    O15      O        0.48817    0.60611    0.61470    1.000
    C57      C        0.40880    0.68130    0.79220    1.000
    H57      H        0.46460    0.69010    0.78830    1.000
    C58      C        0.36200    0.72630    0.86510    1.000
    H58      H        0.38700    0.76430    0.91170    1.000
    C59      C        0.39000    0.70820    0.73670    1.000
    H59      H        0.43150    0.73170    0.69460    1.000
    C60      C        0.34420    0.75490    0.80750    1.000
    H60      H        0.35330    0.81050    0.81360    1.000
    O16      O        0.51183    0.39389    0.61470    1.000
    C61      C        0.59120    0.31870    0.79220    1.000
    H61      H        0.53540    0.30990    0.78830    1.000
    C62      C        0.63800    0.27370    0.86510    1.000
    H62      H        0.61300    0.23570    0.91170    1.000
    C63      C        0.61000    0.29180    0.73670    1.000
    H63      H        0.56850    0.26830    0.69460    1.000
    C64      C        0.65580    0.24510    0.80750    1.000
    H64      H        0.64670    0.18950    0.81360    1.000
    C65      C        0.42280    0.57720    0.64640    1.000
    C66      C        0.37441    0.62559    0.72780    1.000
    C67      C        0.28298    0.71702    0.87080    1.000
    C68      C        0.17941    0.82059    0.91040    1.000
    C69      C        0.23314    0.76686    0.94310    1.000
    N1       N        0.23314    0.76686    0.05690    1.000
    C70      C        0.57720    0.42280    0.64640    1.000
    C71      C        0.62559    0.37441    0.72780    1.000
    C72      C        0.71702    0.28298    0.87080    1.000
    C73      C        0.82059    0.17941    0.91040    1.000
    C74      C        0.76686    0.23314    0.94310    1.000
    N2       N        0.76686    0.23314    0.05690    1.000
    C75      C        0.92280    0.92280    0.14640    1.000
    C76      C        0.87441    0.87441    0.22780    1.000
    C77      C        0.78298    0.78298    0.37080    1.000
    C78      C        0.67941    0.67941    0.41040    1.000
    C79      C        0.73314    0.73314    0.44310    1.000
    N3       N        0.73314    0.73314    0.55690    1.000
    C80      C        0.07720    0.07720    0.14640    1.000
    C81      C        0.12559    0.12559    0.22780    1.000
    C82      C        0.21702    0.21702    0.37080    1.000
    C83      C        0.32059    0.32059    0.41040    1.000
    C84      C        0.26686    0.26686    0.44310    1.000
    N4       N        0.26686    0.26686    0.55690    1.000
    C85      C        0.07720    0.07720    0.85360    1.000
    C86      C        0.12559    0.12559    0.77220    1.000
    C87      C        0.21702    0.21702    0.62920    1.000
    C88      C        0.32059    0.32059    0.58960    1.000
    C89      C        0.92280    0.92280    0.85360    1.000
    C90      C        0.87441    0.87441    0.77220    1.000
    C91      C        0.78298    0.78298    0.62920    1.000
    C92      C        0.67941    0.67941    0.58960    1.000
    C93      C        0.57720    0.42280    0.35360    1.000
    C94      C        0.62559    0.37441    0.27220    1.000
    C95      C        0.71702    0.28298    0.12920    1.000
    C96      C        0.82059    0.17941    0.08960    1.000
    C97      C        0.42280    0.57720    0.35360    1.000
    C98      C        0.37441    0.62559    0.27220    1.000
    C99      C        0.28298    0.71702    0.12920    1.000
    C100     C        0.17941    0.82059    0.08960    1.000
    Cu1      Cu       0.44377    0.44377    0.50000    1.000
    Cu2      Cu       0.55623    0.55623    0.50000    1.000
    Cu3      Cu       0.05623    0.94377    0.00000    1.000
    Cu4      Cu       0.94377    0.05623    0.00000    1.000
    N5       N        0.14670    0.85330    0.00000    1.000
    N6       N        0.85330    0.14670    0.00000    1.000
    N7       N        0.64670    0.64670    0.50000    1.000
    N8       N        0.35330    0.35330    0.50000    1.000
