# CIF file generated by openbabel 3.1.0, see https://openbabel.org
data_I
_chemical_name_common 'image0'
_cell_length_a 6.5528
_cell_length_b 16.4391
_cell_length_c 13.1381
_cell_angle_alpha 90
_cell_angle_beta 90
_cell_angle_gamma 90.5749
_space_group_name_H-M_alt 'P 1'
_space_group_name_Hall 'P 1'
loop_
    _symmetry_equiv_pos_as_xyz
    x,y,z
loop_
    _atom_site_label
    _atom_site_type_symbol
    _atom_site_fract_x
    _atom_site_fract_y
    _atom_site_fract_z
    _atom_site_occupancy
    O1       O        0.15770    0.17412    0.85320    1.000
    O2       O        0.81880    0.65840    0.16630    1.000
    C1       C        0.79830    0.02390    0.94990    1.000
    C2       C        0.00060    0.06150    0.94500    1.000
    C3       C        0.00110    0.13710    0.86620    1.000
    C4       C        0.19570    0.54160    0.02500    1.000
    O3       O        0.65770    0.67412    0.35320    1.000
    O4       O        0.31880    0.15840    0.66630    1.000
    C5       C        0.29830    0.52390    0.44990    1.000
    C6       C        0.50060    0.56150    0.44500    1.000
    C7       C        0.50110    0.63710    0.36620    1.000
    C8       C        0.69570    0.04160    0.52500    1.000
    O5       O        0.84230    0.32588    0.85320    1.000
    O6       O        0.18120    0.84160    0.16630    1.000
    C9       C        0.20170    0.47610    0.94990    1.000
    C10      C        0.99940    0.43850    0.94500    1.000
    C11      C        0.99890    0.36290    0.86620    1.000
    C12      C        0.80430    0.95840    0.02500    1.000
    O7       O        0.34230    0.82588    0.35320    1.000
    O8       O        0.68120    0.34160    0.66630    1.000
    C13      C        0.70170    0.97610    0.44990    1.000
    C14      C        0.49940    0.93850    0.44500    1.000
    C15      C        0.49890    0.86290    0.36620    1.000
    C16      C        0.30430    0.45840    0.52500    1.000
    O9       O        0.84230    0.82588    0.14680    1.000
    O10      O        0.18120    0.34160    0.83370    1.000
    C17      C        0.20170    0.97610    0.05010    1.000
    C18      C        0.99940    0.93850    0.05500    1.000
    C19      C        0.99890    0.86290    0.13380    1.000
    C20      C        0.80430    0.45840    0.97500    1.000
    O11      O        0.34230    0.32588    0.64680    1.000
    O12      O        0.68120    0.84160    0.33370    1.000
    C21      C        0.70170    0.47610    0.55010    1.000
    C22      C        0.49940    0.43850    0.55500    1.000
    C23      C        0.49890    0.36290    0.63380    1.000
    C24      C        0.30430    0.95840    0.47500    1.000
    O13      O        0.15770    0.67412    0.14680    1.000
    O14      O        0.81880    0.15840    0.83370    1.000
    C25      C        0.79830    0.52390    0.05010    1.000
    C26      C        0.00060    0.56150    0.05500    1.000
    C27      C        0.00110    0.63710    0.13380    1.000
    C28      C        0.19570    0.04160    0.97500    1.000
    O15      O        0.65770    0.17412    0.64680    1.000
    O16      O        0.31880    0.65840    0.33370    1.000
    C29      C        0.29830    0.02390    0.55010    1.000
    C30      C        0.50060    0.06150    0.55500    1.000
    C31      C        0.50110    0.13710    0.63380    1.000
    C32      C        0.69570    0.54160    0.47500    1.000
    Al1      Al       0.25000    0.25000    0.75000    1.000
    Al2      Al       0.75000    0.25000    0.75000    1.000
    Al3      Al       0.75000    0.75000    0.25000    1.000
    Al4      Al       0.25000    0.75000    0.25000    1.000
    F1       F        0.00000    0.25000    0.68960    1.000
    F2       F        0.50000    0.75000    0.18960    1.000
    F3       F        0.00000    0.75000    0.31040    1.000
    F4       F        0.50000    0.25000    0.81040    1.000
