# CIF file generated by openbabel 3.1.0, see https://openbabel.org
data_I
_chemical_name_common 'image0'
_cell_length_a 15.003
_cell_length_b 10.126
_cell_length_c 18.604
_cell_angle_alpha 90
_cell_angle_beta 101
_cell_angle_gamma 90
_space_group_name_H-M_alt 'P 1'
_space_group_name_Hall 'P 1'
loop_
    _symmetry_equiv_pos_as_xyz
    x,y,z
loop_
    _atom_site_label
    _atom_site_type_symbol
    _atom_site_fract_x
    _atom_site_fract_y
    _atom_site_fract_z
    _atom_site_occupancy
    V1       V        0.15898    0.38593    0.08585    1.000
    V2       V        0.24682    0.45413    0.28135    1.000
    P1       P        0.78574    0.62254    0.07702    1.000
    P2       P        0.16260    0.66987    0.16686    1.000
    O1       O        0.17600    0.57590    0.10549    1.000
    O2       O        0.79210    0.57180    0.00090    1.000
    O3       O        0.19920    0.35770    0.19110    1.000
    O4       O        0.70000    0.70180    0.07700    1.000
    O5       O        0.78730    0.50050    0.12562    1.000
    O6       O        0.16660    0.59880    0.24010    1.000
    O7       O        0.23420    0.77820    0.17240    1.000
    C1       C        0.88260    0.72430    0.11020    1.000
    H1       H        0.88670    0.79180    0.07400    1.000
    H2       H        0.87340    0.76850    0.15450    1.000
    C2       C        0.97240    0.64950    0.12680    1.000
    H3       H        0.97860    0.59570    0.08490    1.000
    H4       H        0.97270    0.59120    0.16820    1.000
    C3       C        0.05270    0.74500    0.14430    1.000
    H5       H        0.04410    0.80040    0.18490    1.000
    H6       H        0.05160    0.80210    0.10220    1.000
    H7       H        0.20800    0.30400    0.19800    1.000
    V3       V        0.65898    0.88593    0.08585    1.000
    V4       V        0.74682    0.95413    0.28135    1.000
    P3       P        0.28574    0.12254    0.07702    1.000
    P4       P        0.66260    0.16987    0.16686    1.000
    O8       O        0.67600    0.07590    0.10549    1.000
    O9       O        0.29210    0.07180    0.00090    1.000
    O10      O        0.69920    0.85770    0.19110    1.000
    O11      O        0.20000    0.20180    0.07700    1.000
    O12      O        0.28730    0.00050    0.12562    1.000
    O13      O        0.66660    0.09880    0.24010    1.000
    O14      O        0.73420    0.27820    0.17240    1.000
    C4       C        0.38260    0.22430    0.11020    1.000
    H8       H        0.38670    0.29180    0.07400    1.000
    H9       H        0.37340    0.26850    0.15450    1.000
    C5       C        0.47240    0.14950    0.12680    1.000
    H10      H        0.47860    0.09570    0.08490    1.000
    H11      H        0.47270    0.09120    0.16820    1.000
    C6       C        0.55270    0.24500    0.14430    1.000
    H12      H        0.54410    0.30040    0.18490    1.000
    H13      H        0.55160    0.30210    0.10220    1.000
    H14      H        0.70800    0.80400    0.19800    1.000
    V5       V        0.84102    0.38593    0.41415    1.000
    V6       V        0.75318    0.45413    0.21865    1.000
    P5       P        0.21426    0.62254    0.42298    1.000
    P6       P        0.83740    0.66987    0.33314    1.000
    O15      O        0.82400    0.57590    0.39451    1.000
    O16      O        0.20790    0.57180    0.49910    1.000
    O17      O        0.80080    0.35770    0.30890    1.000
    O18      O        0.30000    0.70180    0.42300    1.000
    O19      O        0.21270    0.50050    0.37438    1.000
    O20      O        0.83340    0.59880    0.25990    1.000
    O21      O        0.76580    0.77820    0.32760    1.000
    C7       C        0.11740    0.72430    0.38980    1.000
    H15      H        0.11330    0.79180    0.42600    1.000
    H16      H        0.12660    0.76850    0.34550    1.000
    C8       C        0.02760    0.64950    0.37320    1.000
    H17      H        0.02140    0.59570    0.41510    1.000
    H18      H        0.02730    0.59120    0.33180    1.000
    C9       C        0.94730    0.74500    0.35570    1.000
    H19      H        0.95590    0.80040    0.31510    1.000
    H20      H        0.94840    0.80210    0.39780    1.000
    H21      H        0.79200    0.30400    0.30200    1.000
    V7       V        0.34102    0.88593    0.41415    1.000
    V8       V        0.25318    0.95413    0.21865    1.000
    P7       P        0.71426    0.12254    0.42298    1.000
    P8       P        0.33740    0.16987    0.33314    1.000
    O22      O        0.32400    0.07590    0.39451    1.000
    O23      O        0.70790    0.07180    0.49910    1.000
    O24      O        0.30080    0.85770    0.30890    1.000
    O25      O        0.80000    0.20180    0.42300    1.000
    O26      O        0.71270    0.00050    0.37438    1.000
    O27      O        0.33340    0.09880    0.25990    1.000
    O28      O        0.26580    0.27820    0.32760    1.000
    C10      C        0.61740    0.22430    0.38980    1.000
    H22      H        0.61330    0.29180    0.42600    1.000
    H23      H        0.62660    0.26850    0.34550    1.000
    C11      C        0.52760    0.14950    0.37320    1.000
    H24      H        0.52140    0.09570    0.41510    1.000
    H25      H        0.52730    0.09120    0.33180    1.000
    C12      C        0.44730    0.24500    0.35570    1.000
    H26      H        0.45590    0.30040    0.31510    1.000
    H27      H        0.44840    0.30210    0.39780    1.000
    H28      H        0.29200    0.80400    0.30200    1.000
    V9       V        0.84102    0.61407    0.91415    1.000
    V10      V        0.75318    0.54587    0.71865    1.000
    P9       P        0.21426    0.37746    0.92298    1.000
    P10      P        0.83740    0.33013    0.83314    1.000
    O29      O        0.82400    0.42410    0.89451    1.000
    O30      O        0.20790    0.42820    0.99910    1.000
    O31      O        0.80080    0.64230    0.80890    1.000
    O32      O        0.30000    0.29820    0.92300    1.000
    O33      O        0.21270    0.49950    0.87438    1.000
    O34      O        0.83340    0.40120    0.75990    1.000
    O35      O        0.76580    0.22180    0.82760    1.000
    C13      C        0.11740    0.27570    0.88980    1.000
    H29      H        0.11330    0.20820    0.92600    1.000
    H30      H        0.12660    0.23150    0.84550    1.000
    C14      C        0.02760    0.35050    0.87320    1.000
    H31      H        0.02140    0.40430    0.91510    1.000
    H32      H        0.02730    0.40880    0.83180    1.000
    C15      C        0.94730    0.25500    0.85570    1.000
    H33      H        0.95590    0.19960    0.81510    1.000
    H34      H        0.94840    0.19790    0.89780    1.000
    H35      H        0.79200    0.69600    0.80200    1.000
    V11      V        0.34102    0.11407    0.91415    1.000
    V12      V        0.25318    0.04587    0.71865    1.000
    P11      P        0.71426    0.87746    0.92298    1.000
    P12      P        0.33740    0.83013    0.83314    1.000
    O36      O        0.32400    0.92410    0.89451    1.000
    O37      O        0.70790    0.92820    0.99910    1.000
    O38      O        0.30080    0.14230    0.80890    1.000
    O39      O        0.80000    0.79820    0.92300    1.000
    O40      O        0.71270    0.99950    0.87438    1.000
    O41      O        0.33340    0.90120    0.75990    1.000
    O42      O        0.26580    0.72180    0.82760    1.000
    C16      C        0.61740    0.77570    0.88980    1.000
    H36      H        0.61330    0.70820    0.92600    1.000
    H37      H        0.62660    0.73150    0.84550    1.000
    C17      C        0.52760    0.85050    0.87320    1.000
    H38      H        0.52140    0.90430    0.91510    1.000
    H39      H        0.52730    0.90880    0.83180    1.000
    C18      C        0.44730    0.75500    0.85570    1.000
    H40      H        0.45590    0.69960    0.81510    1.000
    H41      H        0.44840    0.69790    0.89780    1.000
    H42      H        0.29200    0.19600    0.80200    1.000
    V13      V        0.15898    0.61407    0.58585    1.000
    V14      V        0.24682    0.54587    0.78135    1.000
    P13      P        0.78574    0.37746    0.57702    1.000
    P14      P        0.16260    0.33013    0.66686    1.000
    O43      O        0.17600    0.42410    0.60549    1.000
    O44      O        0.79210    0.42820    0.50090    1.000
    O45      O        0.19920    0.64230    0.69110    1.000
    O46      O        0.70000    0.29820    0.57700    1.000
    O47      O        0.78730    0.49950    0.62562    1.000
    O48      O        0.16660    0.40120    0.74010    1.000
    O49      O        0.23420    0.22180    0.67240    1.000
    C19      C        0.88260    0.27570    0.61020    1.000
    H43      H        0.88670    0.20820    0.57400    1.000
    H44      H        0.87340    0.23150    0.65450    1.000
    C20      C        0.97240    0.35050    0.62680    1.000
    H45      H        0.97860    0.40430    0.58490    1.000
    H46      H        0.97270    0.40880    0.66820    1.000
    C21      C        0.05270    0.25500    0.64430    1.000
    H47      H        0.04410    0.19960    0.68490    1.000
    H48      H        0.05160    0.19790    0.60220    1.000
    H49      H        0.20800    0.69600    0.69800    1.000
    V15      V        0.65898    0.11407    0.58585    1.000
    V16      V        0.74682    0.04587    0.78135    1.000
    P15      P        0.28574    0.87746    0.57702    1.000
    P16      P        0.66260    0.83013    0.66686    1.000
    O50      O        0.67600    0.92410    0.60549    1.000
    O51      O        0.29210    0.92820    0.50090    1.000
    O52      O        0.69920    0.14230    0.69110    1.000
    O53      O        0.20000    0.79820    0.57700    1.000
    O54      O        0.28730    0.99950    0.62562    1.000
    O55      O        0.66660    0.90120    0.74010    1.000
    O56      O        0.73420    0.72180    0.67240    1.000
    C22      C        0.38260    0.77570    0.61020    1.000
    H50      H        0.38670    0.70820    0.57400    1.000
    H51      H        0.37340    0.73150    0.65450    1.000
    C23      C        0.47240    0.85050    0.62680    1.000
    H52      H        0.47860    0.90430    0.58490    1.000
    H53      H        0.47270    0.90880    0.66820    1.000
    C24      C        0.55270    0.75500    0.64430    1.000
    H54      H        0.54410    0.69960    0.68490    1.000
    H55      H        0.55160    0.69790    0.60220    1.000
    H56      H        0.70800    0.19600    0.69800    1.000
