# CIF file generated by openbabel 3.1.0, see https://openbabel.org
data_I
_chemical_name_common 'image0'
_cell_length_a 14.3172
_cell_length_b 17.4017
_cell_length_c 7.3334
_cell_angle_alpha 90
_cell_angle_beta 90
_cell_angle_gamma 90
_space_group_name_H-M_alt 'P 1'
_space_group_name_Hall 'P 1'
loop_
    _symmetry_equiv_pos_as_xyz
    x,y,z
loop_
    _atom_site_label
    _atom_site_type_symbol
    _atom_site_fract_x
    _atom_site_fract_y
    _atom_site_fract_z
    _atom_site_occupancy
    N1       N        0.14629    0.77259    0.28825    1.000
    C1       C        0.09592    0.77831    0.16875    1.000
    N2       N        0.64629    0.27259    0.28825    1.000
    C2       C        0.59592    0.27831    0.16875    1.000
    N3       N        0.85371    0.22741    0.28825    1.000
    C3       C        0.90408    0.22169    0.16875    1.000
    N4       N        0.35371    0.72741    0.28825    1.000
    C4       C        0.40408    0.72169    0.16875    1.000
    N5       N        0.85371    0.77259    0.71175    1.000
    C5       C        0.90408    0.77831    0.83125    1.000
    N6       N        0.35371    0.27259    0.71175    1.000
    C6       C        0.40408    0.27831    0.83125    1.000
    N7       N        0.14629    0.22741    0.71175    1.000
    C7       C        0.09592    0.22169    0.83125    1.000
    N8       N        0.64629    0.72741    0.71175    1.000
    C8       C        0.59592    0.72169    0.83125    1.000
    N9       N        0.85371    0.22741    0.71175    1.000
    C9       C        0.90408    0.22169    0.83125    1.000
    N10      N        0.35371    0.72741    0.71175    1.000
    C10      C        0.40408    0.72169    0.83125    1.000
    N11      N        0.14629    0.77259    0.71175    1.000
    C11      C        0.09592    0.77831    0.83125    1.000
    N12      N        0.64629    0.27259    0.71175    1.000
    C12      C        0.59592    0.27831    0.83125    1.000
    N13      N        0.14629    0.22741    0.28825    1.000
    C13      C        0.09592    0.22169    0.16875    1.000
    N14      N        0.64629    0.72741    0.28825    1.000
    C14      C        0.59592    0.72169    0.16875    1.000
    N15      N        0.85371    0.77259    0.28825    1.000
    C15      C        0.90408    0.77831    0.16875    1.000
    N16      N        0.35371    0.27259    0.28825    1.000
    C16      C        0.40408    0.27831    0.16875    1.000
    Fe1      Fe       0.25000    0.75000    0.50000    1.000
    Fe2      Fe       0.75000    0.25000    0.50000    1.000
    Fe3      Fe       0.75000    0.75000    0.50000    1.000
    Fe4      Fe       0.25000    0.25000    0.50000    1.000
    C17      C        0.04708    0.78213    0.00000    1.000
    C18      C        0.54708    0.28213    0.00000    1.000
    C19      C        0.95292    0.21787    0.00000    1.000
    C20      C        0.45292    0.71787    0.00000    1.000
    C21      C        0.95292    0.78213    0.00000    1.000
    C22      C        0.45292    0.28213    0.00000    1.000
    C23      C        0.04708    0.21787    0.00000    1.000
    C24      C        0.54708    0.71787    0.00000    1.000
    N17      N        0.00000    0.37912    0.22770    1.000
    C25      C        0.00000    0.43124    0.29700    1.000
    N18      N        0.50000    0.87912    0.22770    1.000
    C26      C        0.50000    0.93124    0.29700    1.000
    N19      N        0.00000    0.62088    0.22770    1.000
    C27      C        0.00000    0.56876    0.29700    1.000
    N20      N        0.50000    0.12088    0.22770    1.000
    C28      C        0.50000    0.06876    0.29700    1.000
    N21      N        0.00000    0.37912    0.77230    1.000
    C29      C        0.00000    0.43124    0.70300    1.000
    N22      N        0.50000    0.87912    0.77230    1.000
    C30      C        0.50000    0.93124    0.70300    1.000
    N23      N        0.00000    0.62088    0.77230    1.000
    C31      C        0.00000    0.56876    0.70300    1.000
    N24      N        0.50000    0.12088    0.77230    1.000
    C32      C        0.50000    0.06876    0.70300    1.000
    C33      C        0.03938    0.50000    0.42400    1.000
    C34      C        0.53938    0.00000    0.42400    1.000
    C35      C        0.96062    0.50000    0.42400    1.000
    C36      C        0.46062    0.00000    0.42400    1.000
    C37      C        0.96062    0.50000    0.57600    1.000
    C38      C        0.46062    0.00000    0.57600    1.000
    C39      C        0.03938    0.50000    0.57600    1.000
    C40      C        0.53938    0.00000    0.57600    1.000
    N25      N        0.21135    0.62998    0.50000    1.000
    C41      C        0.18401    0.56999    0.50000    1.000
    N26      N        0.71135    0.12998    0.50000    1.000
    C42      C        0.68401    0.06999    0.50000    1.000
    N27      N        0.78865    0.37002    0.50000    1.000
    C43      C        0.81599    0.43001    0.50000    1.000
    N28      N        0.28865    0.87002    0.50000    1.000
    C44      C        0.31599    0.93001    0.50000    1.000
    N29      N        0.78865    0.62998    0.50000    1.000
    C45      C        0.81599    0.56999    0.50000    1.000
    N30      N        0.28865    0.12998    0.50000    1.000
    C46      C        0.31599    0.06999    0.50000    1.000
    N31      N        0.21135    0.37002    0.50000    1.000
    C47      C        0.18401    0.43001    0.50000    1.000
    N32      N        0.71135    0.87002    0.50000    1.000
    C48      C        0.68401    0.93001    0.50000    1.000
    C49      C        0.13837    0.50000    0.50000    1.000
    C50      C        0.63837    0.00000    0.50000    1.000
    C51      C        0.86163    0.50000    0.50000    1.000
    C52      C        0.36163    0.00000    0.50000    1.000
