# CIF file generated by openbabel 3.1.0, see https://openbabel.org
data_I
_chemical_name_common 'image0'
_cell_length_a 28.654
_cell_length_b 15.0332
_cell_length_c 16.5899
_cell_angle_alpha 90
_cell_angle_beta 119.904
_cell_angle_gamma 90
_space_group_name_H-M_alt 'P 1'
_space_group_name_Hall 'P 1'
loop_
    _symmetry_equiv_pos_as_xyz
    x,y,z
loop_
    _atom_site_label
    _atom_site_type_symbol
    _atom_site_fract_x
    _atom_site_fract_y
    _atom_site_fract_z
    _atom_site_occupancy
    Zn1      Zn       0.36124    0.19766    0.68724    1.000
    N1       N        0.29134    0.12790    0.62420    1.000
    N2       N        0.41250    0.12780    0.80080    1.000
    N3       N        0.05958    0.87140    0.33810    1.000
    O1       O        0.48170    0.27200    0.38430    1.000
    O2       O        0.44720    0.20010    0.25530    1.000
    O3       O        0.15130    0.17880    0.29960    1.000
    O4       O        0.18710    0.21490    0.21380    1.000
    O5       O        0.28033    0.09700    0.38770    1.000
    O6       O        0.38020    0.20790    0.58800    1.000
    O7       O        0.38450    0.06160    0.57810    1.000
    C1       C        0.44690    0.21980    0.32710    1.000
    C2       C        0.40330    0.18550    0.34320    1.000
    C3       C        0.35550    0.15910    0.26950    1.000
    H1       H        0.35090    0.16050    0.20990    1.000
    C4       C        0.31350    0.13020    0.28220    1.000
    H2       H        0.28040    0.11550    0.23120    1.000
    C5       C        0.32130    0.12350    0.37070    1.000
    C6       C        0.36920    0.14870    0.44660    1.000
    C7       C        0.40900    0.18340    0.43080    1.000
    H3       H        0.44030    0.20570    0.48070    1.000
    C8       C        0.37900    0.13660    0.54450    1.000
    C9       C        0.24320    0.03530    0.32400    1.000
    C10      C        0.25830    0.94700    0.32820    1.000
    H4       H        0.29300    0.92980    0.37240    1.000
    C11      C        0.22390    0.88610    0.26990    1.000
    H5       H        0.23510    0.82780    0.27080    1.000
    C12      C        0.16910    0.91290    0.20530    1.000
    H6       H        0.14400    0.87080    0.16690    1.000
    C13      C        0.15410    0.00060    0.20090    1.000
    H7       H        0.11910    0.01810    0.15850    1.000
    C14      C        0.19150    0.06340    0.26010    1.000
    C15      C        0.17600    0.15920    0.25680    1.000
    C16      C        0.29270    0.03820    0.61850    1.000
    H8       H        0.32570    0.00940    0.65180    1.000
    C17      C        0.24750    0.98810    0.56540    1.000
    H9       H        0.25020    0.92660    0.56360    1.000
    C18      C        0.19790    0.02900    0.51460    1.000
    C19      C        0.19600    0.12160    0.52060    1.000
    H10      H        0.16330    0.15150    0.48770    1.000
    C20      C        0.24270    0.16810    0.57550    1.000
    H11      H        0.24080    0.22960    0.57940    1.000
    C21      C        0.14920    0.97560    0.45380    1.000
    C22      C        0.13910    0.89330    0.48470    1.000
    H12      H        0.16250    0.87240    0.54440    1.000
    C23      C        0.09380    0.84480    0.42410    1.000
    H13      H        0.08710    0.79140    0.44460    1.000
    C24      C        0.06780    0.94880    0.30990    1.000
    H14      H        0.04330    0.96770    0.25000    1.000
    C25      C        0.11230    0.00450    0.36620    1.000
    H15      H        0.11640    0.05930    0.34430    1.000
    C26      C        0.45000    0.07340    0.80200    1.000
    H16      H        0.45260    0.06960    0.74840    1.000
    C27      C        0.48470    0.02280    0.87760    1.000
    H17      H        0.50980    0.98630    0.87420    1.000
    C28      C        0.48210    0.02660    0.95870    1.000
    C29      C        0.44310    0.08280    0.95690    1.000
    H18      H        0.43930    0.08760    0.00920    1.000
    C30      C        0.40950    0.13230    0.87720    1.000
    H19      H        0.38400    0.16980    0.87840    1.000
    Zn2      Zn       0.86124    0.69766    0.68724    1.000
    N4       N        0.79134    0.62790    0.62420    1.000
    N5       N        0.91250    0.62780    0.80080    1.000
    N6       N        0.55958    0.37140    0.33810    1.000
    O8       O        0.98170    0.77200    0.38430    1.000
    O9       O        0.94720    0.70010    0.25530    1.000
    O10      O        0.65130    0.67880    0.29960    1.000
    O11      O        0.68710    0.71490    0.21380    1.000
    O12      O        0.78033    0.59700    0.38770    1.000
    O13      O        0.88020    0.70790    0.58800    1.000
    O14      O        0.88450    0.56160    0.57810    1.000
    C31      C        0.94690    0.71980    0.32710    1.000
    C32      C        0.90330    0.68550    0.34320    1.000
    C33      C        0.85550    0.65910    0.26950    1.000
    H20      H        0.85090    0.66050    0.20990    1.000
    C34      C        0.81350    0.63020    0.28220    1.000
    H21      H        0.78040    0.61550    0.23120    1.000
    C35      C        0.82130    0.62350    0.37070    1.000
    C36      C        0.86920    0.64870    0.44660    1.000
    C37      C        0.90900    0.68340    0.43080    1.000
    H22      H        0.94030    0.70570    0.48070    1.000
    C38      C        0.87900    0.63660    0.54450    1.000
    C39      C        0.74320    0.53530    0.32400    1.000
    C40      C        0.75830    0.44700    0.32820    1.000
    H23      H        0.79300    0.42980    0.37240    1.000
    C41      C        0.72390    0.38610    0.26990    1.000
    H24      H        0.73510    0.32780    0.27080    1.000
    C42      C        0.66910    0.41290    0.20530    1.000
    H25      H        0.64400    0.37080    0.16690    1.000
    C43      C        0.65410    0.50060    0.20090    1.000
    H26      H        0.61910    0.51810    0.15850    1.000
    C44      C        0.69150    0.56340    0.26010    1.000
    C45      C        0.67600    0.65920    0.25680    1.000
    C46      C        0.79270    0.53820    0.61850    1.000
    H27      H        0.82570    0.50940    0.65180    1.000
    C47      C        0.74750    0.48810    0.56540    1.000
    H28      H        0.75020    0.42660    0.56360    1.000
    C48      C        0.69790    0.52900    0.51460    1.000
    C49      C        0.69600    0.62160    0.52060    1.000
    H29      H        0.66330    0.65150    0.48770    1.000
    C50      C        0.74270    0.66810    0.57550    1.000
    H30      H        0.74080    0.72960    0.57940    1.000
    C51      C        0.64920    0.47560    0.45380    1.000
    C52      C        0.63910    0.39330    0.48470    1.000
    H31      H        0.66250    0.37240    0.54440    1.000
    C53      C        0.59380    0.34480    0.42410    1.000
    H32      H        0.58710    0.29140    0.44460    1.000
    C54      C        0.56780    0.44880    0.30990    1.000
    H33      H        0.54330    0.46770    0.25000    1.000
    C55      C        0.61230    0.50450    0.36620    1.000
    H34      H        0.61640    0.55930    0.34430    1.000
    C56      C        0.95000    0.57340    0.80200    1.000
    H35      H        0.95260    0.56960    0.74840    1.000
    C57      C        0.98470    0.52280    0.87760    1.000
    H36      H        0.00980    0.48630    0.87420    1.000
    C58      C        0.98210    0.52660    0.95870    1.000
    C59      C        0.94310    0.58280    0.95690    1.000
    H37      H        0.93930    0.58760    0.00920    1.000
    C60      C        0.90950    0.63230    0.87720    1.000
    H38      H        0.88400    0.66980    0.87840    1.000
    Zn3      Zn       0.63876    0.19766    0.81276    1.000
    N7       N        0.70866    0.12790    0.87580    1.000
    N8       N        0.58750    0.12780    0.69920    1.000
    N9       N        0.94042    0.87140    0.16190    1.000
    O15      O        0.51830    0.27200    0.11570    1.000
    O16      O        0.55280    0.20010    0.24470    1.000
    O17      O        0.84870    0.17880    0.20040    1.000
    O18      O        0.81290    0.21490    0.28620    1.000
    O19      O        0.71967    0.09700    0.11230    1.000
    O20      O        0.61980    0.20790    0.91200    1.000
    O21      O        0.61550    0.06160    0.92190    1.000
    C61      C        0.55310    0.21980    0.17290    1.000
    C62      C        0.59670    0.18550    0.15680    1.000
    C63      C        0.64450    0.15910    0.23050    1.000
    H39      H        0.64910    0.16050    0.29010    1.000
    C64      C        0.68650    0.13020    0.21780    1.000
    H40      H        0.71960    0.11550    0.26880    1.000
    C65      C        0.67870    0.12350    0.12930    1.000
    C66      C        0.63080    0.14870    0.05340    1.000
    C67      C        0.59100    0.18340    0.06920    1.000
    H41      H        0.55970    0.20570    0.01930    1.000
    C68      C        0.62100    0.13660    0.95550    1.000
    C69      C        0.75680    0.03530    0.17600    1.000
    C70      C        0.74170    0.94700    0.17180    1.000
    H42      H        0.70700    0.92980    0.12760    1.000
    C71      C        0.77610    0.88610    0.23010    1.000
    H43      H        0.76490    0.82780    0.22920    1.000
    C72      C        0.83090    0.91290    0.29470    1.000
    H44      H        0.85600    0.87080    0.33310    1.000
    C73      C        0.84590    0.00060    0.29910    1.000
    H45      H        0.88090    0.01810    0.34150    1.000
    C74      C        0.80850    0.06340    0.23990    1.000
    C75      C        0.82400    0.15920    0.24320    1.000
    C76      C        0.70730    0.03820    0.88150    1.000
    H46      H        0.67430    0.00940    0.84820    1.000
    C77      C        0.75250    0.98810    0.93460    1.000
    H47      H        0.74980    0.92660    0.93640    1.000
    C78      C        0.80210    0.02900    0.98540    1.000
    C79      C        0.80400    0.12160    0.97940    1.000
    H48      H        0.83670    0.15150    0.01230    1.000
    C80      C        0.75730    0.16810    0.92450    1.000
    H49      H        0.75920    0.22960    0.92060    1.000
    C81      C        0.85080    0.97560    0.04620    1.000
    C82      C        0.86090    0.89330    0.01530    1.000
    H50      H        0.83750    0.87240    0.95560    1.000
    C83      C        0.90620    0.84480    0.07590    1.000
    H51      H        0.91290    0.79140    0.05540    1.000
    C84      C        0.93220    0.94880    0.19010    1.000
    H52      H        0.95670    0.96770    0.25000    1.000
    C85      C        0.88770    0.00450    0.13380    1.000
    H53      H        0.88360    0.05930    0.15570    1.000
    C86      C        0.55000    0.07340    0.69800    1.000
    H54      H        0.54740    0.06960    0.75160    1.000
    C87      C        0.51530    0.02280    0.62240    1.000
    H55      H        0.49020    0.98630    0.62580    1.000
    C88      C        0.51790    0.02660    0.54130    1.000
    C89      C        0.55690    0.08280    0.54310    1.000
    H56      H        0.56070    0.08760    0.49080    1.000
    C90      C        0.59050    0.13230    0.62280    1.000
    H57      H        0.61600    0.16980    0.62160    1.000
    Zn4      Zn       0.13876    0.69766    0.81276    1.000
    N10      N        0.20866    0.62790    0.87580    1.000
    N11      N        0.08750    0.62780    0.69920    1.000
    N12      N        0.44042    0.37140    0.16190    1.000
    O22      O        0.01830    0.77200    0.11570    1.000
    O23      O        0.05280    0.70010    0.24470    1.000
    O24      O        0.34870    0.67880    0.20040    1.000
    O25      O        0.31290    0.71490    0.28620    1.000
    O26      O        0.21967    0.59700    0.11230    1.000
    O27      O        0.11980    0.70790    0.91200    1.000
    O28      O        0.11550    0.56160    0.92190    1.000
    C91      C        0.05310    0.71980    0.17290    1.000
    C92      C        0.09670    0.68550    0.15680    1.000
    C93      C        0.14450    0.65910    0.23050    1.000
    H58      H        0.14910    0.66050    0.29010    1.000
    C94      C        0.18650    0.63020    0.21780    1.000
    H59      H        0.21960    0.61550    0.26880    1.000
    C95      C        0.17870    0.62350    0.12930    1.000
    C96      C        0.13080    0.64870    0.05340    1.000
    C97      C        0.09100    0.68340    0.06920    1.000
    H60      H        0.05970    0.70570    0.01930    1.000
    C98      C        0.12100    0.63660    0.95550    1.000
    C99      C        0.25680    0.53530    0.17600    1.000
    C100     C        0.24170    0.44700    0.17180    1.000
    H61      H        0.20700    0.42980    0.12760    1.000
    C101     C        0.27610    0.38610    0.23010    1.000
    H62      H        0.26490    0.32780    0.22920    1.000
    C102     C        0.33090    0.41290    0.29470    1.000
    H63      H        0.35600    0.37080    0.33310    1.000
    C103     C        0.34590    0.50060    0.29910    1.000
    H64      H        0.38090    0.51810    0.34150    1.000
    C104     C        0.30850    0.56340    0.23990    1.000
    C105     C        0.32400    0.65920    0.24320    1.000
    C106     C        0.20730    0.53820    0.88150    1.000
    H65      H        0.17430    0.50940    0.84820    1.000
    C107     C        0.25250    0.48810    0.93460    1.000
    H66      H        0.24980    0.42660    0.93640    1.000
    C108     C        0.30210    0.52900    0.98540    1.000
    C109     C        0.30400    0.62160    0.97940    1.000
    H67      H        0.33670    0.65150    0.01230    1.000
    C110     C        0.25730    0.66810    0.92450    1.000
    H68      H        0.25920    0.72960    0.92060    1.000
    C111     C        0.35080    0.47560    0.04620    1.000
    C112     C        0.36090    0.39330    0.01530    1.000
    H69      H        0.33750    0.37240    0.95560    1.000
    C113     C        0.40620    0.34480    0.07590    1.000
    H70      H        0.41290    0.29140    0.05540    1.000
    C114     C        0.43220    0.44880    0.19010    1.000
    H71      H        0.45670    0.46770    0.25000    1.000
    C115     C        0.38770    0.50450    0.13380    1.000
    H72      H        0.38360    0.55930    0.15570    1.000
    C116     C        0.05000    0.57340    0.69800    1.000
    H73      H        0.04740    0.56960    0.75160    1.000
    C117     C        0.01530    0.52280    0.62240    1.000
    H74      H        0.99020    0.48630    0.62580    1.000
    C118     C        0.01790    0.52660    0.54130    1.000
    C119     C        0.05690    0.58280    0.54310    1.000
    H75      H        0.06070    0.58760    0.49080    1.000
    C120     C        0.09050    0.63230    0.62280    1.000
    H76      H        0.11600    0.66980    0.62160    1.000
    Zn5      Zn       0.63876    0.80234    0.31276    1.000
    N13      N        0.70866    0.87210    0.37580    1.000
    N14      N        0.58750    0.87220    0.19920    1.000
    N15      N        0.94042    0.12860    0.66190    1.000
    O29      O        0.51830    0.72800    0.61570    1.000
    O30      O        0.55280    0.79990    0.74470    1.000
    O31      O        0.84870    0.82120    0.70040    1.000
    O32      O        0.81290    0.78510    0.78620    1.000
    O33      O        0.71967    0.90300    0.61230    1.000
    O34      O        0.61980    0.79210    0.41200    1.000
    O35      O        0.61550    0.93840    0.42190    1.000
    C121     C        0.55310    0.78020    0.67290    1.000
    C122     C        0.59670    0.81450    0.65680    1.000
    C123     C        0.64450    0.84090    0.73050    1.000
    H77      H        0.64910    0.83950    0.79010    1.000
    C124     C        0.68650    0.86980    0.71780    1.000
    H78      H        0.71960    0.88450    0.76880    1.000
    C125     C        0.67870    0.87650    0.62930    1.000
    C126     C        0.63080    0.85130    0.55340    1.000
    C127     C        0.59100    0.81660    0.56920    1.000
    H79      H        0.55970    0.79430    0.51930    1.000
    C128     C        0.62100    0.86340    0.45550    1.000
    C129     C        0.75680    0.96470    0.67600    1.000
    C130     C        0.74170    0.05300    0.67180    1.000
    H80      H        0.70700    0.07020    0.62760    1.000
    C131     C        0.77610    0.11390    0.73010    1.000
    H81      H        0.76490    0.17220    0.72920    1.000
    C132     C        0.83090    0.08710    0.79470    1.000
    H82      H        0.85600    0.12920    0.83310    1.000
    C133     C        0.84590    0.99940    0.79910    1.000
    H83      H        0.88090    0.98190    0.84150    1.000
    C134     C        0.80850    0.93660    0.73990    1.000
    C135     C        0.82400    0.84080    0.74320    1.000
    C136     C        0.70730    0.96180    0.38150    1.000
    H84      H        0.67430    0.99060    0.34820    1.000
    C137     C        0.75250    0.01190    0.43460    1.000
    H85      H        0.74980    0.07340    0.43640    1.000
    C138     C        0.80210    0.97100    0.48540    1.000
    C139     C        0.80400    0.87840    0.47940    1.000
    H86      H        0.83670    0.84850    0.51230    1.000
    C140     C        0.75730    0.83190    0.42450    1.000
    H87      H        0.75920    0.77040    0.42060    1.000
    C141     C        0.85080    0.02440    0.54620    1.000
    C142     C        0.86090    0.10670    0.51530    1.000
    H88      H        0.83750    0.12760    0.45560    1.000
    C143     C        0.90620    0.15520    0.57590    1.000
    H89      H        0.91290    0.20860    0.55540    1.000
    C144     C        0.93220    0.05120    0.69010    1.000
    H90      H        0.95670    0.03230    0.75000    1.000
    C145     C        0.88770    0.99550    0.63380    1.000
    H91      H        0.88360    0.94070    0.65570    1.000
    C146     C        0.55000    0.92660    0.19800    1.000
    H92      H        0.54740    0.93040    0.25160    1.000
    C147     C        0.51530    0.97720    0.12240    1.000
    H93      H        0.49020    0.01370    0.12580    1.000
    C148     C        0.51790    0.97340    0.04130    1.000
    C149     C        0.55690    0.91720    0.04310    1.000
    H94      H        0.56070    0.91240    0.99080    1.000
    C150     C        0.59050    0.86770    0.12280    1.000
    H95      H        0.61600    0.83020    0.12160    1.000
    Zn6      Zn       0.13876    0.30234    0.31276    1.000
    N16      N        0.20866    0.37210    0.37580    1.000
    N17      N        0.08750    0.37220    0.19920    1.000
    N18      N        0.44042    0.62860    0.66190    1.000
    O36      O        0.01830    0.22800    0.61570    1.000
    O37      O        0.05280    0.29990    0.74470    1.000
    O38      O        0.34870    0.32120    0.70040    1.000
    O39      O        0.31290    0.28510    0.78620    1.000
    O40      O        0.21967    0.40300    0.61230    1.000
    O41      O        0.11980    0.29210    0.41200    1.000
    O42      O        0.11550    0.43840    0.42190    1.000
    C151     C        0.05310    0.28020    0.67290    1.000
    C152     C        0.09670    0.31450    0.65680    1.000
    C153     C        0.14450    0.34090    0.73050    1.000
    H96      H        0.14910    0.33950    0.79010    1.000
    C154     C        0.18650    0.36980    0.71780    1.000
    H97      H        0.21960    0.38450    0.76880    1.000
    C155     C        0.17870    0.37650    0.62930    1.000
    C156     C        0.13080    0.35130    0.55340    1.000
    C157     C        0.09100    0.31660    0.56920    1.000
    H98      H        0.05970    0.29430    0.51930    1.000
    C158     C        0.12100    0.36340    0.45550    1.000
    C159     C        0.25680    0.46470    0.67600    1.000
    C160     C        0.24170    0.55300    0.67180    1.000
    H99      H        0.20700    0.57020    0.62760    1.000
    C161     C        0.27610    0.61390    0.73010    1.000
    H100     H        0.26490    0.67220    0.72920    1.000
    C162     C        0.33090    0.58710    0.79470    1.000
    H101     H        0.35600    0.62920    0.83310    1.000
    C163     C        0.34590    0.49940    0.79910    1.000
    H102     H        0.38090    0.48190    0.84150    1.000
    C164     C        0.30850    0.43660    0.73990    1.000
    C165     C        0.32400    0.34080    0.74320    1.000
    C166     C        0.20730    0.46180    0.38150    1.000
    H103     H        0.17430    0.49060    0.34820    1.000
    C167     C        0.25250    0.51190    0.43460    1.000
    H104     H        0.24980    0.57340    0.43640    1.000
    C168     C        0.30210    0.47100    0.48540    1.000
    C169     C        0.30400    0.37840    0.47940    1.000
    H105     H        0.33670    0.34850    0.51230    1.000
    C170     C        0.25730    0.33190    0.42450    1.000
    H106     H        0.25920    0.27040    0.42060    1.000
    C171     C        0.35080    0.52440    0.54620    1.000
    C172     C        0.36090    0.60670    0.51530    1.000
    H107     H        0.33750    0.62760    0.45560    1.000
    C173     C        0.40620    0.65520    0.57590    1.000
    H108     H        0.41290    0.70860    0.55540    1.000
    C174     C        0.43220    0.55120    0.69010    1.000
    H109     H        0.45670    0.53230    0.75000    1.000
    C175     C        0.38770    0.49550    0.63380    1.000
    H110     H        0.38360    0.44070    0.65570    1.000
    C176     C        0.05000    0.42660    0.19800    1.000
    H111     H        0.04740    0.43040    0.25160    1.000
    C177     C        0.01530    0.47720    0.12240    1.000
    H112     H        0.99020    0.51370    0.12580    1.000
    C178     C        0.01790    0.47340    0.04130    1.000
    C179     C        0.05690    0.41720    0.04310    1.000
    H113     H        0.06070    0.41240    0.99080    1.000
    C180     C        0.09050    0.36770    0.12280    1.000
    H114     H        0.11600    0.33020    0.12160    1.000
    Zn7      Zn       0.36124    0.80234    0.18724    1.000
    N19      N        0.29134    0.87210    0.12420    1.000
    N20      N        0.41250    0.87220    0.30080    1.000
    N21      N        0.05958    0.12860    0.83810    1.000
    O43      O        0.48170    0.72800    0.88430    1.000
    O44      O        0.44720    0.79990    0.75530    1.000
    O45      O        0.15130    0.82120    0.79960    1.000
    O46      O        0.18710    0.78510    0.71380    1.000
    O47      O        0.28033    0.90300    0.88770    1.000
    O48      O        0.38020    0.79210    0.08800    1.000
    O49      O        0.38450    0.93840    0.07810    1.000
    C181     C        0.44690    0.78020    0.82710    1.000
    C182     C        0.40330    0.81450    0.84320    1.000
    C183     C        0.35550    0.84090    0.76950    1.000
    H115     H        0.35090    0.83950    0.70990    1.000
    C184     C        0.31350    0.86980    0.78220    1.000
    H116     H        0.28040    0.88450    0.73120    1.000
    C185     C        0.32130    0.87650    0.87070    1.000
    C186     C        0.36920    0.85130    0.94660    1.000
    C187     C        0.40900    0.81660    0.93080    1.000
    H117     H        0.44030    0.79430    0.98070    1.000
    C188     C        0.37900    0.86340    0.04450    1.000
    C189     C        0.24320    0.96470    0.82400    1.000
    C190     C        0.25830    0.05300    0.82820    1.000
    H118     H        0.29300    0.07020    0.87240    1.000
    C191     C        0.22390    0.11390    0.76990    1.000
    H119     H        0.23510    0.17220    0.77080    1.000
    C192     C        0.16910    0.08710    0.70530    1.000
    H120     H        0.14400    0.12920    0.66690    1.000
    C193     C        0.15410    0.99940    0.70090    1.000
    H121     H        0.11910    0.98190    0.65850    1.000
    C194     C        0.19150    0.93660    0.76010    1.000
    C195     C        0.17600    0.84080    0.75680    1.000
    C196     C        0.29270    0.96180    0.11850    1.000
    H122     H        0.32570    0.99060    0.15180    1.000
    C197     C        0.24750    0.01190    0.06540    1.000
    H123     H        0.25020    0.07340    0.06360    1.000
    C198     C        0.19790    0.97100    0.01460    1.000
    C199     C        0.19600    0.87840    0.02060    1.000
    H124     H        0.16330    0.84850    0.98770    1.000
    C200     C        0.24270    0.83190    0.07550    1.000
    H125     H        0.24080    0.77040    0.07940    1.000
    C201     C        0.14920    0.02440    0.95380    1.000
    C202     C        0.13910    0.10670    0.98470    1.000
    H126     H        0.16250    0.12760    0.04440    1.000
    C203     C        0.09380    0.15520    0.92410    1.000
    H127     H        0.08710    0.20860    0.94460    1.000
    C204     C        0.06780    0.05120    0.80990    1.000
    H128     H        0.04330    0.03230    0.75000    1.000
    C205     C        0.11230    0.99550    0.86620    1.000
    H129     H        0.11640    0.94070    0.84430    1.000
    C206     C        0.45000    0.92660    0.30200    1.000
    H130     H        0.45260    0.93040    0.24840    1.000
    C207     C        0.48470    0.97720    0.37760    1.000
    H131     H        0.50980    0.01370    0.37420    1.000
    C208     C        0.48210    0.97340    0.45870    1.000
    C209     C        0.44310    0.91720    0.45690    1.000
    H132     H        0.43930    0.91240    0.50920    1.000
    C210     C        0.40950    0.86770    0.37720    1.000
    H133     H        0.38400    0.83020    0.37840    1.000
    Zn8      Zn       0.86124    0.30234    0.18724    1.000
    N22      N        0.79134    0.37210    0.12420    1.000
    N23      N        0.91250    0.37220    0.30080    1.000
    N24      N        0.55958    0.62860    0.83810    1.000
    O50      O        0.98170    0.22800    0.88430    1.000
    O51      O        0.94720    0.29990    0.75530    1.000
    O52      O        0.65130    0.32120    0.79960    1.000
    O53      O        0.68710    0.28510    0.71380    1.000
    O54      O        0.78033    0.40300    0.88770    1.000
    O55      O        0.88020    0.29210    0.08800    1.000
    O56      O        0.88450    0.43840    0.07810    1.000
    C211     C        0.94690    0.28020    0.82710    1.000
    C212     C        0.90330    0.31450    0.84320    1.000
    C213     C        0.85550    0.34090    0.76950    1.000
    H134     H        0.85090    0.33950    0.70990    1.000
    C214     C        0.81350    0.36980    0.78220    1.000
    H135     H        0.78040    0.38450    0.73120    1.000
    C215     C        0.82130    0.37650    0.87070    1.000
    C216     C        0.86920    0.35130    0.94660    1.000
    C217     C        0.90900    0.31660    0.93080    1.000
    H136     H        0.94030    0.29430    0.98070    1.000
    C218     C        0.87900    0.36340    0.04450    1.000
    C219     C        0.74320    0.46470    0.82400    1.000
    C220     C        0.75830    0.55300    0.82820    1.000
    H137     H        0.79300    0.57020    0.87240    1.000
    C221     C        0.72390    0.61390    0.76990    1.000
    H138     H        0.73510    0.67220    0.77080    1.000
    C222     C        0.66910    0.58710    0.70530    1.000
    H139     H        0.64400    0.62920    0.66690    1.000
    C223     C        0.65410    0.49940    0.70090    1.000
    H140     H        0.61910    0.48190    0.65850    1.000
    C224     C        0.69150    0.43660    0.76010    1.000
    C225     C        0.67600    0.34080    0.75680    1.000
    C226     C        0.79270    0.46180    0.11850    1.000
    H141     H        0.82570    0.49060    0.15180    1.000
    C227     C        0.74750    0.51190    0.06540    1.000
    H142     H        0.75020    0.57340    0.06360    1.000
    C228     C        0.69790    0.47100    0.01460    1.000
    C229     C        0.69600    0.37840    0.02060    1.000
    H143     H        0.66330    0.34850    0.98770    1.000
    C230     C        0.74270    0.33190    0.07550    1.000
    H144     H        0.74080    0.27040    0.07940    1.000
    C231     C        0.64920    0.52440    0.95380    1.000
    C232     C        0.63910    0.60670    0.98470    1.000
    H145     H        0.66250    0.62760    0.04440    1.000
    C233     C        0.59380    0.65520    0.92410    1.000
    H146     H        0.58710    0.70860    0.94460    1.000
    C234     C        0.56780    0.55120    0.80990    1.000
    H147     H        0.54330    0.53230    0.75000    1.000
    C235     C        0.61230    0.49550    0.86620    1.000
    H148     H        0.61640    0.44070    0.84430    1.000
    C236     C        0.95000    0.42660    0.30200    1.000
    H149     H        0.95260    0.43040    0.24840    1.000
    C237     C        0.98470    0.47720    0.37760    1.000
    H150     H        0.00980    0.51370    0.37420    1.000
    C238     C        0.98210    0.47340    0.45870    1.000
    C239     C        0.94310    0.41720    0.45690    1.000
    H151     H        0.93930    0.41240    0.50920    1.000
    C240     C        0.90950    0.36770    0.37720    1.000
    H152     H        0.88400    0.33020    0.37840    1.000
    Zn9      Zn       0.50000    0.28606    0.25000    1.000
    Zn10     Zn       0.00000    0.78606    0.25000    1.000
    Zn11     Zn       0.50000    0.71394    0.75000    1.000
    Zn12     Zn       0.00000    0.21394    0.75000    1.000
