# CIF file generated by openbabel 3.1.0, see https://openbabel.org
data_I
_chemical_name_common 'image0'
_cell_length_a 18.873
_cell_length_b 19.329
_cell_length_c 25.911
_cell_angle_alpha 90
_cell_angle_beta 101.04
_cell_angle_gamma 90
_space_group_name_H-M_alt 'P 1'
_space_group_name_Hall 'P 1'
loop_
    _symmetry_equiv_pos_as_xyz
    x,y,z
loop_
    _atom_site_label
    _atom_site_type_symbol
    _atom_site_fract_x
    _atom_site_fract_y
    _atom_site_fract_z
    _atom_site_occupancy
    O1       O        0.23430    0.05940    0.51730    1.000
    O2       O        0.31320    0.02920    0.46950    1.000
    C1       C        0.29690    0.04750    0.51180    1.000
    O3       O        0.30570    0.08160    0.70650    1.000
    O4       O        0.40980    0.11010    0.74090    1.000
    C2       C        0.36970    0.09050    0.70340    1.000
    O5       O        0.67080    0.43150    0.45240    1.000
    O6       O        0.76330    0.36920    0.49550    1.000
    C3       C        0.69930    0.39020    0.48850    1.000
    O7       O        0.44450    0.39410    0.60110    1.000
    O8       O        0.44510    0.44260    0.52970    1.000
    C4       C        0.47250    0.40460    0.56290    1.000
    C5       C        0.54480    0.37200    0.56200    1.000
    C6       C        0.86460    0.93850    0.80070    1.000
    H1       H        0.87670    0.93200    0.83690    1.000
    Cd1      Cd       0.69654    0.07855    0.57095    1.000
    Cd2      Cd       0.67811    0.11975    0.70645    1.000
    Cd3      Cd       0.83646    0.94740    0.56226    1.000
    O9       O        0.57500    0.08540    0.55150    1.000
    C7       C        0.48090    0.06910    0.59890    1.000
    C8       C        0.46200    0.07720    0.64770    1.000
    H2       H        0.49780    0.08390    0.67740    1.000
    C9       C        0.33770    0.06740    0.60730    1.000
    H3       H        0.28940    0.06980    0.61020    1.000
    C10      C        0.55890    0.06940    0.59550    1.000
    N1       N        0.76830    0.02810    0.64360    1.000
    O10      O        0.70360    0.18290    0.61790    1.000
    O11      O        0.61900    0.20980    0.66360    1.000
    C11      C        0.67410    0.30650    0.55720    1.000
    H4       H        0.71770    0.28460    0.55610    1.000
    C12      C        0.65400    0.36190    0.52620    1.000
    N2       N        0.75810    0.04120    0.69170    1.000
    C13      C        0.63070    0.28180    0.59060    1.000
    C14      C        0.35440    0.05610    0.55900    1.000
    C15      C        0.65220    0.22210    0.62580    1.000
    C16      C        0.42700    0.05720    0.55530    1.000
    H5       H        0.43970    0.04990    0.52280    1.000
    C17      C        0.58740    0.39600    0.52740    1.000
    H6       H        0.57270    0.43360    0.50560    1.000
    N3       N        0.81600    0.98120    0.64180    1.000
    O12      O        0.60580    0.05530    0.63440    1.000
    C18      C        0.56750    0.31600    0.59420    1.000
    H7       H        0.54010    0.30130    0.61840    1.000
    C19      C        0.39060    0.07550    0.65230    1.000
    C20      C        0.83890    0.95930    0.69090    1.000
    C21      C        0.80210    0.99780    0.72140    1.000
    C22      C        0.81550    0.98760    0.77960    1.000
    H8       H        0.79110    0.01370    0.80080    1.000
    C23      C        0.88850    0.90670    0.70870    1.000
    H9       H        0.91270    0.88110    0.68710    1.000
    C24      C        0.89730    0.89710    0.76520    1.000
    H10      H        0.92680    0.86080    0.77990    1.000
    O13      O        0.73430    0.55940    0.51730    1.000
    O14      O        0.81320    0.52920    0.46950    1.000
    C25      C        0.79690    0.54750    0.51180    1.000
    O15      O        0.80570    0.58160    0.70650    1.000
    O16      O        0.90980    0.61010    0.74090    1.000
    C26      C        0.86970    0.59050    0.70340    1.000
    O17      O        0.17080    0.93150    0.45240    1.000
    O18      O        0.26330    0.86920    0.49550    1.000
    C27      C        0.19930    0.89020    0.48850    1.000
    O19      O        0.94450    0.89410    0.60110    1.000
    O20      O        0.94510    0.94260    0.52970    1.000
    C28      C        0.97250    0.90460    0.56290    1.000
    C29      C        0.04480    0.87200    0.56200    1.000
    C30      C        0.36460    0.43850    0.80070    1.000
    H11      H        0.37670    0.43200    0.83690    1.000
    Cd4      Cd       0.19654    0.57855    0.57095    1.000
    Cd5      Cd       0.17811    0.61975    0.70645    1.000
    Cd6      Cd       0.33646    0.44740    0.56226    1.000
    O21      O        0.07500    0.58540    0.55150    1.000
    C31      C        0.98090    0.56910    0.59890    1.000
    C32      C        0.96200    0.57720    0.64770    1.000
    H12      H        0.99780    0.58390    0.67740    1.000
    C33      C        0.83770    0.56740    0.60730    1.000
    H13      H        0.78940    0.56980    0.61020    1.000
    C34      C        0.05890    0.56940    0.59550    1.000
    N4       N        0.26830    0.52810    0.64360    1.000
    O22      O        0.20360    0.68290    0.61790    1.000
    O23      O        0.11900    0.70980    0.66360    1.000
    C35      C        0.17410    0.80650    0.55720    1.000
    H14      H        0.21770    0.78460    0.55610    1.000
    C36      C        0.15400    0.86190    0.52620    1.000
    N5       N        0.25810    0.54120    0.69170    1.000
    C37      C        0.13070    0.78180    0.59060    1.000
    C38      C        0.85440    0.55610    0.55900    1.000
    C39      C        0.15220    0.72210    0.62580    1.000
    C40      C        0.92700    0.55720    0.55530    1.000
    H15      H        0.93970    0.54990    0.52280    1.000
    C41      C        0.08740    0.89600    0.52740    1.000
    H16      H        0.07270    0.93360    0.50560    1.000
    N6       N        0.31600    0.48120    0.64180    1.000
    O24      O        0.10580    0.55530    0.63440    1.000
    C42      C        0.06750    0.81600    0.59420    1.000
    H17      H        0.04010    0.80130    0.61840    1.000
    C43      C        0.89060    0.57550    0.65230    1.000
    C44      C        0.33890    0.45930    0.69090    1.000
    C45      C        0.30210    0.49780    0.72140    1.000
    C46      C        0.31550    0.48760    0.77960    1.000
    H18      H        0.29110    0.51370    0.80080    1.000
    C47      C        0.38850    0.40670    0.70870    1.000
    H19      H        0.41270    0.38110    0.68710    1.000
    C48      C        0.39730    0.39710    0.76520    1.000
    H20      H        0.42680    0.36080    0.77990    1.000
    O25      O        0.76570    0.05940    0.98270    1.000
    O26      O        0.68680    0.02920    0.03050    1.000
    C49      C        0.70310    0.04750    0.98820    1.000
    O27      O        0.69430    0.08160    0.79350    1.000
    O28      O        0.59020    0.11010    0.75910    1.000
    C50      C        0.63030    0.09050    0.79660    1.000
    O29      O        0.32920    0.43150    0.04760    1.000
    O30      O        0.23670    0.36920    0.00450    1.000
    C51      C        0.30070    0.39020    0.01150    1.000
    O31      O        0.55550    0.39410    0.89890    1.000
    O32      O        0.55490    0.44260    0.97030    1.000
    C52      C        0.52750    0.40460    0.93710    1.000
    C53      C        0.45520    0.37200    0.93800    1.000
    C54      C        0.13540    0.93850    0.69930    1.000
    H21      H        0.12330    0.93200    0.66310    1.000
    Cd7      Cd       0.30346    0.07855    0.92905    1.000
    Cd8      Cd       0.32189    0.11975    0.79355    1.000
    Cd9      Cd       0.16354    0.94740    0.93774    1.000
    O33      O        0.42500    0.08540    0.94850    1.000
    C55      C        0.51910    0.06910    0.90110    1.000
    C56      C        0.53800    0.07720    0.85230    1.000
    H22      H        0.50220    0.08390    0.82260    1.000
    C57      C        0.66230    0.06740    0.89270    1.000
    H23      H        0.71060    0.06980    0.88980    1.000
    C58      C        0.44110    0.06940    0.90450    1.000
    N7       N        0.23170    0.02810    0.85640    1.000
    O34      O        0.29640    0.18290    0.88210    1.000
    O35      O        0.38100    0.20980    0.83640    1.000
    C59      C        0.32590    0.30650    0.94280    1.000
    H24      H        0.28230    0.28460    0.94390    1.000
    C60      C        0.34600    0.36190    0.97380    1.000
    N8       N        0.24190    0.04120    0.80830    1.000
    C61      C        0.36930    0.28180    0.90940    1.000
    C62      C        0.64560    0.05610    0.94100    1.000
    C63      C        0.34780    0.22210    0.87420    1.000
    C64      C        0.57300    0.05720    0.94470    1.000
    H25      H        0.56030    0.04990    0.97720    1.000
    C65      C        0.41260    0.39600    0.97260    1.000
    H26      H        0.42730    0.43360    0.99440    1.000
    N9       N        0.18400    0.98120    0.85820    1.000
    O36      O        0.39420    0.05530    0.86560    1.000
    C66      C        0.43250    0.31600    0.90580    1.000
    H27      H        0.45990    0.30130    0.88160    1.000
    C67      C        0.60940    0.07550    0.84770    1.000
    C68      C        0.16110    0.95930    0.80910    1.000
    C69      C        0.19790    0.99780    0.77860    1.000
    C70      C        0.18450    0.98760    0.72040    1.000
    H28      H        0.20890    0.01370    0.69920    1.000
    C71      C        0.11150    0.90670    0.79130    1.000
    H29      H        0.08730    0.88110    0.81290    1.000
    C72      C        0.10270    0.89710    0.73480    1.000
    H30      H        0.07320    0.86080    0.72010    1.000
    O37      O        0.26570    0.55940    0.98270    1.000
    O38      O        0.18680    0.52920    0.03050    1.000
    C73      C        0.20310    0.54750    0.98820    1.000
    O39      O        0.19430    0.58160    0.79350    1.000
    O40      O        0.09020    0.61010    0.75910    1.000
    C74      C        0.13030    0.59050    0.79660    1.000
    O41      O        0.82920    0.93150    0.04760    1.000
    O42      O        0.73670    0.86920    0.00450    1.000
    C75      C        0.80070    0.89020    0.01150    1.000
    O43      O        0.05550    0.89410    0.89890    1.000
    O44      O        0.05490    0.94260    0.97030    1.000
    C76      C        0.02750    0.90460    0.93710    1.000
    C77      C        0.95520    0.87200    0.93800    1.000
    C78      C        0.63540    0.43850    0.69930    1.000
    H31      H        0.62330    0.43200    0.66310    1.000
    Cd10     Cd       0.80346    0.57855    0.92905    1.000
    Cd11     Cd       0.82189    0.61975    0.79355    1.000
    Cd12     Cd       0.66354    0.44740    0.93774    1.000
    O45      O        0.92500    0.58540    0.94850    1.000
    C79      C        0.01910    0.56910    0.90110    1.000
    C80      C        0.03800    0.57720    0.85230    1.000
    H32      H        0.00220    0.58390    0.82260    1.000
    C81      C        0.16230    0.56740    0.89270    1.000
    H33      H        0.21060    0.56980    0.88980    1.000
    C82      C        0.94110    0.56940    0.90450    1.000
    N10      N        0.73170    0.52810    0.85640    1.000
    O46      O        0.79640    0.68290    0.88210    1.000
    O47      O        0.88100    0.70980    0.83640    1.000
    C83      C        0.82590    0.80650    0.94280    1.000
    H34      H        0.78230    0.78460    0.94390    1.000
    C84      C        0.84600    0.86190    0.97380    1.000
    N11      N        0.74190    0.54120    0.80830    1.000
    C85      C        0.86930    0.78180    0.90940    1.000
    C86      C        0.14560    0.55610    0.94100    1.000
    C87      C        0.84780    0.72210    0.87420    1.000
    C88      C        0.07300    0.55720    0.94470    1.000
    H35      H        0.06030    0.54990    0.97720    1.000
    C89      C        0.91260    0.89600    0.97260    1.000
    H36      H        0.92730    0.93360    0.99440    1.000
    N12      N        0.68400    0.48120    0.85820    1.000
    O48      O        0.89420    0.55530    0.86560    1.000
    C90      C        0.93250    0.81600    0.90580    1.000
    H37      H        0.95990    0.80130    0.88160    1.000
    C91      C        0.10940    0.57550    0.84770    1.000
    C92      C        0.66110    0.45930    0.80910    1.000
    C93      C        0.69790    0.49780    0.77860    1.000
    C94      C        0.68450    0.48760    0.72040    1.000
    H38      H        0.70890    0.51370    0.69920    1.000
    C95      C        0.61150    0.40670    0.79130    1.000
    H39      H        0.58730    0.38110    0.81290    1.000
    C96      C        0.60270    0.39710    0.73480    1.000
    H40      H        0.57320    0.36080    0.72010    1.000
    O49      O        0.76570    0.94060    0.48270    1.000
    O50      O        0.68680    0.97080    0.53050    1.000
    C97      C        0.70310    0.95250    0.48820    1.000
    O51      O        0.69430    0.91840    0.29350    1.000
    O52      O        0.59020    0.88990    0.25910    1.000
    C98      C        0.63030    0.90950    0.29660    1.000
    O53      O        0.32920    0.56850    0.54760    1.000
    O54      O        0.23670    0.63080    0.50450    1.000
    C99      C        0.30070    0.60980    0.51150    1.000
    O55      O        0.55550    0.60590    0.39890    1.000
    O56      O        0.55490    0.55740    0.47030    1.000
    C100     C        0.52750    0.59540    0.43710    1.000
    C101     C        0.45520    0.62800    0.43800    1.000
    C102     C        0.13540    0.06150    0.19930    1.000
    H41      H        0.12330    0.06800    0.16310    1.000
    Cd13     Cd       0.30346    0.92145    0.42905    1.000
    Cd14     Cd       0.32189    0.88025    0.29355    1.000
    Cd15     Cd       0.16354    0.05260    0.43774    1.000
    O57      O        0.42500    0.91460    0.44850    1.000
    C103     C        0.51910    0.93090    0.40110    1.000
    C104     C        0.53800    0.92280    0.35230    1.000
    H42      H        0.50220    0.91610    0.32260    1.000
    C105     C        0.66230    0.93260    0.39270    1.000
    H43      H        0.71060    0.93020    0.38980    1.000
    C106     C        0.44110    0.93060    0.40450    1.000
    N13      N        0.23170    0.97190    0.35640    1.000
    O58      O        0.29640    0.81710    0.38210    1.000
    O59      O        0.38100    0.79020    0.33640    1.000
    C107     C        0.32590    0.69350    0.44280    1.000
    H44      H        0.28230    0.71540    0.44390    1.000
    C108     C        0.34600    0.63810    0.47380    1.000
    N14      N        0.24190    0.95880    0.30830    1.000
    C109     C        0.36930    0.71820    0.40940    1.000
    C110     C        0.64560    0.94390    0.44100    1.000
    C111     C        0.34780    0.77790    0.37420    1.000
    C112     C        0.57300    0.94280    0.44470    1.000
    H45      H        0.56030    0.95010    0.47720    1.000
    C113     C        0.41260    0.60400    0.47260    1.000
    H46      H        0.42730    0.56640    0.49440    1.000
    N15      N        0.18400    0.01880    0.35820    1.000
    O60      O        0.39420    0.94470    0.36560    1.000
    C114     C        0.43250    0.68400    0.40580    1.000
    H47      H        0.45990    0.69870    0.38160    1.000
    C115     C        0.60940    0.92450    0.34770    1.000
    C116     C        0.16110    0.04070    0.30910    1.000
    C117     C        0.19790    0.00220    0.27860    1.000
    C118     C        0.18450    0.01240    0.22040    1.000
    H48      H        0.20890    0.98630    0.19920    1.000
    C119     C        0.11150    0.09330    0.29130    1.000
    H49      H        0.08730    0.11890    0.31290    1.000
    C120     C        0.10270    0.10290    0.23480    1.000
    H50      H        0.07320    0.13920    0.22010    1.000
    O61      O        0.26570    0.44060    0.48270    1.000
    O62      O        0.18680    0.47080    0.53050    1.000
    C121     C        0.20310    0.45250    0.48820    1.000
    O63      O        0.19430    0.41840    0.29350    1.000
    O64      O        0.09020    0.38990    0.25910    1.000
    C122     C        0.13030    0.40950    0.29660    1.000
    O65      O        0.82920    0.06850    0.54760    1.000
    O66      O        0.73670    0.13080    0.50450    1.000
    C123     C        0.80070    0.10980    0.51150    1.000
    O67      O        0.05550    0.10590    0.39890    1.000
    O68      O        0.05490    0.05740    0.47030    1.000
    C124     C        0.02750    0.09540    0.43710    1.000
    C125     C        0.95520    0.12800    0.43800    1.000
    C126     C        0.63540    0.56150    0.19930    1.000
    H51      H        0.62330    0.56800    0.16310    1.000
    Cd16     Cd       0.80346    0.42145    0.42905    1.000
    Cd17     Cd       0.82189    0.38025    0.29355    1.000
    Cd18     Cd       0.66354    0.55260    0.43774    1.000
    O69      O        0.92500    0.41460    0.44850    1.000
    C127     C        0.01910    0.43090    0.40110    1.000
    C128     C        0.03800    0.42280    0.35230    1.000
    H52      H        0.00220    0.41610    0.32260    1.000
    C129     C        0.16230    0.43260    0.39270    1.000
    H53      H        0.21060    0.43020    0.38980    1.000
    C130     C        0.94110    0.43060    0.40450    1.000
    N16      N        0.73170    0.47190    0.35640    1.000
    O70      O        0.79640    0.31710    0.38210    1.000
    O71      O        0.88100    0.29020    0.33640    1.000
    C131     C        0.82590    0.19350    0.44280    1.000
    H54      H        0.78230    0.21540    0.44390    1.000
    C132     C        0.84600    0.13810    0.47380    1.000
    N17      N        0.74190    0.45880    0.30830    1.000
    C133     C        0.86930    0.21820    0.40940    1.000
    C134     C        0.14560    0.44390    0.44100    1.000
    C135     C        0.84780    0.27790    0.37420    1.000
    C136     C        0.07300    0.44280    0.44470    1.000
    H55      H        0.06030    0.45010    0.47720    1.000
    C137     C        0.91260    0.10400    0.47260    1.000
    H56      H        0.92730    0.06640    0.49440    1.000
    N18      N        0.68400    0.51880    0.35820    1.000
    O72      O        0.89420    0.44470    0.36560    1.000
    C138     C        0.93250    0.18400    0.40580    1.000
    H57      H        0.95990    0.19870    0.38160    1.000
    C139     C        0.10940    0.42450    0.34770    1.000
    C140     C        0.66110    0.54070    0.30910    1.000
    C141     C        0.69790    0.50220    0.27860    1.000
    C142     C        0.68450    0.51240    0.22040    1.000
    H58      H        0.70890    0.48630    0.19920    1.000
    C143     C        0.61150    0.59330    0.29130    1.000
    H59      H        0.58730    0.61890    0.31290    1.000
    C144     C        0.60270    0.60290    0.23480    1.000
    H60      H        0.57320    0.63920    0.22010    1.000
    O73      O        0.23430    0.94060    0.01730    1.000
    O74      O        0.31320    0.97080    0.96950    1.000
    C145     C        0.29690    0.95250    0.01180    1.000
    O75      O        0.30570    0.91840    0.20650    1.000
    O76      O        0.40980    0.88990    0.24090    1.000
    C146     C        0.36970    0.90950    0.20340    1.000
    O77      O        0.67080    0.56850    0.95240    1.000
    O78      O        0.76330    0.63080    0.99550    1.000
    C147     C        0.69930    0.60980    0.98850    1.000
    O79      O        0.44450    0.60590    0.10110    1.000
    O80      O        0.44510    0.55740    0.02970    1.000
    C148     C        0.47250    0.59540    0.06290    1.000
    C149     C        0.54480    0.62800    0.06200    1.000
    C150     C        0.86460    0.06150    0.30070    1.000
    H61      H        0.87670    0.06800    0.33690    1.000
    Cd19     Cd       0.69654    0.92145    0.07095    1.000
    Cd20     Cd       0.67811    0.88025    0.20645    1.000
    Cd21     Cd       0.83646    0.05260    0.06226    1.000
    O81      O        0.57500    0.91460    0.05150    1.000
    C151     C        0.48090    0.93090    0.09890    1.000
    C152     C        0.46200    0.92280    0.14770    1.000
    H62      H        0.49780    0.91610    0.17740    1.000
    C153     C        0.33770    0.93260    0.10730    1.000
    H63      H        0.28940    0.93020    0.11020    1.000
    C154     C        0.55890    0.93060    0.09550    1.000
    N19      N        0.76830    0.97190    0.14360    1.000
    O82      O        0.70360    0.81710    0.11790    1.000
    O83      O        0.61900    0.79020    0.16360    1.000
    C155     C        0.67410    0.69350    0.05720    1.000
    H64      H        0.71770    0.71540    0.05610    1.000
    C156     C        0.65400    0.63810    0.02620    1.000
    N20      N        0.75810    0.95880    0.19170    1.000
    C157     C        0.63070    0.71820    0.09060    1.000
    C158     C        0.35440    0.94390    0.05900    1.000
    C159     C        0.65220    0.77790    0.12580    1.000
    C160     C        0.42700    0.94280    0.05530    1.000
    H65      H        0.43970    0.95010    0.02280    1.000
    C161     C        0.58740    0.60400    0.02740    1.000
    H66      H        0.57270    0.56640    0.00560    1.000
    N21      N        0.81600    0.01880    0.14180    1.000
    O84      O        0.60580    0.94470    0.13440    1.000
    C162     C        0.56750    0.68400    0.09420    1.000
    H67      H        0.54010    0.69870    0.11840    1.000
    C163     C        0.39060    0.92450    0.15230    1.000
    C164     C        0.83890    0.04070    0.19090    1.000
    C165     C        0.80210    0.00220    0.22140    1.000
    C166     C        0.81550    0.01240    0.27960    1.000
    H68      H        0.79110    0.98630    0.30080    1.000
    C167     C        0.88850    0.09330    0.20870    1.000
    H69      H        0.91270    0.11890    0.18710    1.000
    C168     C        0.89730    0.10290    0.26520    1.000
    H70      H        0.92680    0.13920    0.27990    1.000
    O85      O        0.73430    0.44060    0.01730    1.000
    O86      O        0.81320    0.47080    0.96950    1.000
    C169     C        0.79690    0.45250    0.01180    1.000
    O87      O        0.80570    0.41840    0.20650    1.000
    O88      O        0.90980    0.38990    0.24090    1.000
    C170     C        0.86970    0.40950    0.20340    1.000
    O89      O        0.17080    0.06850    0.95240    1.000
    O90      O        0.26330    0.13080    0.99550    1.000
    C171     C        0.19930    0.10980    0.98850    1.000
    O91      O        0.94450    0.10590    0.10110    1.000
    O92      O        0.94510    0.05740    0.02970    1.000
    C172     C        0.97250    0.09540    0.06290    1.000
    C173     C        0.04480    0.12800    0.06200    1.000
    C174     C        0.36460    0.56150    0.30070    1.000
    H71      H        0.37670    0.56800    0.33690    1.000
    Cd22     Cd       0.19654    0.42145    0.07095    1.000
    Cd23     Cd       0.17811    0.38025    0.20645    1.000
    Cd24     Cd       0.33646    0.55260    0.06226    1.000
    O93      O        0.07500    0.41460    0.05150    1.000
    C175     C        0.98090    0.43090    0.09890    1.000
    C176     C        0.96200    0.42280    0.14770    1.000
    H72      H        0.99780    0.41610    0.17740    1.000
    C177     C        0.83770    0.43260    0.10730    1.000
    H73      H        0.78940    0.43020    0.11020    1.000
    C178     C        0.05890    0.43060    0.09550    1.000
    N22      N        0.26830    0.47190    0.14360    1.000
    O94      O        0.20360    0.31710    0.11790    1.000
    O95      O        0.11900    0.29020    0.16360    1.000
    C179     C        0.17410    0.19350    0.05720    1.000
    H74      H        0.21770    0.21540    0.05610    1.000
    C180     C        0.15400    0.13810    0.02620    1.000
    N23      N        0.25810    0.45880    0.19170    1.000
    C181     C        0.13070    0.21820    0.09060    1.000
    C182     C        0.85440    0.44390    0.05900    1.000
    C183     C        0.15220    0.27790    0.12580    1.000
    C184     C        0.92700    0.44280    0.05530    1.000
    H75      H        0.93970    0.45010    0.02280    1.000
    C185     C        0.08740    0.10400    0.02740    1.000
    H76      H        0.07270    0.06640    0.00560    1.000
    N24      N        0.31600    0.51880    0.14180    1.000
    O96      O        0.10580    0.44470    0.13440    1.000
    C186     C        0.06750    0.18400    0.09420    1.000
    H77      H        0.04010    0.19870    0.11840    1.000
    C187     C        0.89060    0.42450    0.15230    1.000
    C188     C        0.33890    0.54070    0.19090    1.000
    C189     C        0.30210    0.50220    0.22140    1.000
    C190     C        0.31550    0.51240    0.27960    1.000
    H78      H        0.29110    0.48630    0.30080    1.000
    C191     C        0.38850    0.59330    0.20870    1.000
    H79      H        0.41270    0.61890    0.18710    1.000
    C192     C        0.39730    0.60290    0.26520    1.000
    H80      H        0.42680    0.63920    0.27990    1.000
