# CIF file generated by openbabel 3.1.0, see https://openbabel.org
data_I
_chemical_name_common 'image0'
_cell_length_a 13.838
_cell_length_b 26.893
_cell_length_c 7.543
_cell_angle_alpha 90
_cell_angle_beta 90
_cell_angle_gamma 90.92
_space_group_name_H-M_alt 'P 1'
_space_group_name_Hall 'P 1'
loop_
    _symmetry_equiv_pos_as_xyz
    x,y,z
loop_
    _atom_site_label
    _atom_site_type_symbol
    _atom_site_fract_x
    _atom_site_fract_y
    _atom_site_fract_z
    _atom_site_occupancy
    Cd1      Cd       0.26592    0.36960    0.37952    1.000
    Cd2      Cd       0.19154    0.63703    0.37937    1.000
    Ni1      Ni       0.19669    0.50006    0.87230    1.000
    Ni2      Ni       0.99590    0.23606    0.26040    1.000
    N1       N        0.22200    0.42150    0.14800    1.000
    N2       N        0.20970    0.42270    0.58700    1.000
    N3       N        0.13020    0.31840    0.37200    1.000
    N4       N        0.33420    0.31620    0.60200    1.000
    N5       N        0.32660    0.31390    0.15700    1.000
    N6       N        0.42880    0.39243    0.33800    1.000
    N7       N        0.20520    0.57570    0.16300    1.000
    N8       N        0.18610    0.58210    0.60400    1.000
    N9       N        0.85340    0.15790    0.13000    1.000
    N10      N        0.83210    0.29300    0.42000    1.000
    N11      N        0.16870    0.69440    0.14400    1.000
    N12      N        0.02380    0.63460    0.32600    1.000
    C1       C        0.21160    0.45060    0.04400    1.000
    C2       C        0.20100    0.45190    0.69400    1.000
    C3       C        0.07890    0.28690    0.33300    1.000
    C4       C        0.39920    0.29690    0.66400    1.000
    C5       C        0.20060    0.54770    0.05100    1.000
    C6       C        0.18830    0.55100    0.70400    1.000
    C7       C        0.90970    0.18680    0.18100    1.000
    C8       C        0.89400    0.27090    0.35800    1.000
    C9       C        0.42900    0.32120    0.14800    1.000
    C10      C        0.47000    0.36680    0.18900    1.000
    C11      C        0.58000    0.37300    0.16700    1.000
    C12      C        0.06800    0.69710    0.11400    1.000
    C13      C        0.99910    0.66980    0.18700    1.000
    C14      C        0.89440    0.67610    0.14700    1.000
    Cd3      Cd       0.23408    0.13040    0.87952    1.000
    Cd4      Cd       0.30846    0.86297    0.87937    1.000
    Ni3      Ni       0.30331    0.99994    0.37230    1.000
    Ni4      Ni       0.50410    0.26394    0.76040    1.000
    N13      N        0.27800    0.07850    0.64800    1.000
    N14      N        0.29030    0.07730    0.08700    1.000
    N15      N        0.36980    0.18160    0.87200    1.000
    N16      N        0.16580    0.18380    0.10200    1.000
    N17      N        0.17340    0.18610    0.65700    1.000
    N18      N        0.07120    0.10757    0.83800    1.000
    N19      N        0.29480    0.92430    0.66300    1.000
    N20      N        0.31390    0.91790    0.10400    1.000
    N21      N        0.64660    0.34210    0.63000    1.000
    N22      N        0.66790    0.20700    0.92000    1.000
    N23      N        0.33130    0.80560    0.64400    1.000
    N24      N        0.47620    0.86540    0.82600    1.000
    C15      C        0.28840    0.04940    0.54400    1.000
    C16      C        0.29900    0.04810    0.19400    1.000
    C17      C        0.42110    0.21310    0.83300    1.000
    C18      C        0.10080    0.20310    0.16400    1.000
    C19      C        0.29940    0.95230    0.55100    1.000
    C20      C        0.31170    0.94900    0.20400    1.000
    C21      C        0.59030    0.31320    0.68100    1.000
    C22      C        0.60600    0.22910    0.85800    1.000
    C23      C        0.07100    0.17880    0.64800    1.000
    C24      C        0.03000    0.13320    0.68900    1.000
    C25      C        0.92000    0.12700    0.66700    1.000
    C26      C        0.43200    0.80290    0.61400    1.000
    C27      C        0.50090    0.83020    0.68700    1.000
    C28      C        0.60560    0.82390    0.64700    1.000
    Cd5      Cd       0.73408    0.63040    0.62048    1.000
    Cd6      Cd       0.80846    0.36297    0.62063    1.000
    Ni5      Ni       0.80331    0.49994    0.12770    1.000
    Ni6      Ni       0.00410    0.76394    0.73960    1.000
    N25      N        0.77800    0.57850    0.85200    1.000
    N26      N        0.79030    0.57730    0.41300    1.000
    N27      N        0.86980    0.68160    0.62800    1.000
    N28      N        0.66580    0.68380    0.39800    1.000
    N29      N        0.67340    0.68610    0.84300    1.000
    N30      N        0.57120    0.60757    0.66200    1.000
    N31      N        0.79480    0.42430    0.83700    1.000
    N32      N        0.81390    0.41790    0.39600    1.000
    N33      N        0.14660    0.84210    0.87000    1.000
    N34      N        0.16790    0.70700    0.58000    1.000
    N35      N        0.83130    0.30560    0.85600    1.000
    N36      N        0.97620    0.36540    0.67400    1.000
    C29      C        0.78840    0.54940    0.95600    1.000
    C30      C        0.79900    0.54810    0.30600    1.000
    C31      C        0.92110    0.71310    0.66700    1.000
    C32      C        0.60080    0.70310    0.33600    1.000
    C33      C        0.79940    0.45230    0.94900    1.000
    C34      C        0.81170    0.44900    0.29600    1.000
    C35      C        0.09030    0.81320    0.81900    1.000
    C36      C        0.10600    0.72910    0.64200    1.000
    C37      C        0.57100    0.67880    0.85200    1.000
    C38      C        0.53000    0.63320    0.81100    1.000
    C39      C        0.42000    0.62700    0.83300    1.000
    C40      C        0.93200    0.30290    0.88600    1.000
    C41      C        0.00090    0.33020    0.81300    1.000
    C42      C        0.10560    0.32390    0.85300    1.000
    Cd7      Cd       0.76592    0.86960    0.12048    1.000
    Cd8      Cd       0.69154    0.13703    0.12063    1.000
    Ni7      Ni       0.69669    0.00006    0.62770    1.000
    Ni8      Ni       0.49590    0.73606    0.23960    1.000
    N37      N        0.72200    0.92150    0.35200    1.000
    N38      N        0.70970    0.92270    0.91300    1.000
    N39      N        0.63020    0.81840    0.12800    1.000
    N40      N        0.83420    0.81620    0.89800    1.000
    N41      N        0.82660    0.81390    0.34300    1.000
    N42      N        0.92880    0.89243    0.16200    1.000
    N43      N        0.70520    0.07570    0.33700    1.000
    N44      N        0.68610    0.08210    0.89600    1.000
    N45      N        0.35340    0.65790    0.37000    1.000
    N46      N        0.33210    0.79300    0.08000    1.000
    N47      N        0.66870    0.19440    0.35600    1.000
    N48      N        0.52380    0.13460    0.17400    1.000
    C43      C        0.71160    0.95060    0.45600    1.000
    C44      C        0.70100    0.95190    0.80600    1.000
    C45      C        0.57890    0.78690    0.16700    1.000
    C46      C        0.89920    0.79690    0.83600    1.000
    C47      C        0.70060    0.04770    0.44900    1.000
    C48      C        0.68830    0.05100    0.79600    1.000
    C49      C        0.40970    0.68680    0.31900    1.000
    C50      C        0.39400    0.77090    0.14200    1.000
    C51      C        0.92900    0.82120    0.35200    1.000
    C52      C        0.97000    0.86680    0.31100    1.000
    C53      C        0.08000    0.87300    0.33300    1.000
    C54      C        0.56800    0.19710    0.38600    1.000
    C55      C        0.49910    0.16980    0.31300    1.000
    C56      C        0.39440    0.17610    0.35300    1.000
