# CIF file generated by openbabel 3.1.0, see https://openbabel.org
data_I
_chemical_name_common 'image0'
_cell_length_a 14.1561
_cell_length_b 10.5239
_cell_length_c 27.033
_cell_angle_alpha 90
_cell_angle_beta 100.649
_cell_angle_gamma 90
_space_group_name_H-M_alt 'P 1'
_space_group_name_Hall 'P 1'
loop_
    _symmetry_equiv_pos_as_xyz
    x,y,z
loop_
    _atom_site_label
    _atom_site_type_symbol
    _atom_site_fract_x
    _atom_site_fract_y
    _atom_site_fract_z
    _atom_site_occupancy
    Mn1      Mn       0.25262    0.60763    0.48919    1.000
    C1       C        0.34080    0.47530    0.40330    1.000
    C2       C        0.30500    0.41300    0.35210    1.000
    C3       C        0.36400    0.33720    0.32960    1.000
    H1       H        0.42690    0.32180    0.34560    1.000
    C4       C        0.33010    0.28490    0.28370    1.000
    H2       H        0.37030    0.23360    0.26870    1.000
    C5       C        0.18200    0.37670    0.28110    1.000
    H3       H        0.11950    0.39080    0.26410    1.000
    C6       C        0.21100    0.43060    0.32770    1.000
    H4       H        0.16830    0.47780    0.34260    1.000
    C7       C        0.20270    0.25250    0.20890    1.000
    H5       H        0.13920    0.21670    0.20790    1.000
    H6       H        0.24500    0.18490    0.20210    1.000
    C8       C        0.19760    0.35430    0.16900    1.000
    H7       H        0.26200    0.37600    0.16440    1.000
    H8       H        0.16810    0.43020    0.17970    1.000
    C9       C        0.13940    0.30720    0.11980    1.000
    H9       H        0.17360    0.23890    0.10670    1.000
    H10      H        0.07820    0.27430    0.12540    1.000
    C10      C        0.17810    0.42510    0.04750    1.000
    H11      H        0.22530    0.36470    0.04550    1.000
    C11      C        0.16480    0.52600    0.01450    1.000
    H12      H        0.20210    0.53240    0.98970    1.000
    C12      C        0.09570    0.61880    0.01810    1.000
    C13      C        0.04000    0.60010    0.05440    1.000
    H13      H        0.99140    0.65790    0.05690    1.000
    C14      C        0.05390    0.50150    0.08610    1.000
    H14      H        0.01620    0.49270    0.11060    1.000
    C15      C        0.08100    0.73070    0.98350    1.000
    C16      C        0.43160    0.77070    0.51130    1.000
    C17      C        0.49230    0.87130    0.54250    1.000
    C18      C        0.45040    0.97440    0.56130    1.000
    H15      H        0.38380    0.98010    0.55730    1.000
    C19      C        0.50700    0.06760    0.58580    1.000
    H16      H        0.47860    0.13810    0.59770    1.000
    C20      C        0.64590    0.95890    0.57640    1.000
    H17      H        0.71260    0.95340    0.58240    1.000
    C21      C        0.59180    0.86390    0.55060    1.000
    H18      H        0.62170    0.79490    0.53850    1.000
    C22      C        0.66310    0.16470    0.61930    1.000
    H19      H        0.63220    0.24600    0.61040    1.000
    H20      H        0.72550    0.16540    0.60930    1.000
    C23      C        0.67470    0.14320    0.67490    1.000
    H21      H        0.70350    0.06040    0.68320    1.000
    H22      H        0.61200    0.14360    0.68450    1.000
    C24      C        0.73770    0.24540    0.70440    1.000
    H23      H        0.79510    0.25790    0.69010    1.000
    H24      H        0.70290    0.32520    0.70230    1.000
    C25      C        0.69770    0.17390    0.78440    1.000
    H25      H        0.63330    0.17400    0.76880    1.000
    C26      C        0.72250    0.14170    0.83420    1.000
    H26      H        0.67490    0.12470    0.85280    1.000
    C27      C        0.81740    0.13460    0.85670    1.000
    C28      C        0.88550    0.16480    0.82790    1.000
    H27      H        0.95060    0.15920    0.84170    1.000
    C29      C        0.85690    0.20300    0.77870    1.000
    H28      H        0.90260    0.22750    0.76000    1.000
    C30      C        0.84680    0.10120    0.91120    1.000
    N1       N        0.36530    0.48030    0.52930    1.000
    N2       N        0.35060    0.39730    0.55660    1.000
    N3       N        0.33830    0.31500    0.58380    1.000
    N4       N        0.13900    0.45670    0.47660    1.000
    N5       N        0.16320    0.35570    0.46300    1.000
    N6       N        0.18970    0.25900    0.45110    1.000
    N7       N        0.23890    0.30640    0.25960    1.000
    N8       N        0.12270    0.41420    0.08260    1.000
    N9       N        0.60280    0.05980    0.59310    1.000
    N10      N        0.76520    0.20530    0.75810    1.000
    O1       O        0.42230    0.44470    0.42520    1.000
    O2       O        0.28520    0.55540    0.41700    1.000
    O3       O        0.14530    0.74940    0.95640    1.000
    O4       O        0.00860    0.79570    0.98300    1.000
    O5       O        0.47510    0.69860    0.48580    1.000
    O6       O        0.34360    0.77470    0.51020    1.000
    O7       O        0.92490    0.04170    0.92370    1.000
    O8       O        0.79270    0.13970    0.93880    1.000
    Mn2      Mn       0.74738    0.10763    0.01081    1.000
    C31      C        0.65920    0.97530    0.09670    1.000
    C32      C        0.69500    0.91300    0.14790    1.000
    C33      C        0.63600    0.83720    0.17040    1.000
    H29      H        0.57310    0.82180    0.15440    1.000
    C34      C        0.66990    0.78490    0.21630    1.000
    H30      H        0.62970    0.73360    0.23130    1.000
    C35      C        0.81800    0.87670    0.21890    1.000
    H31      H        0.88050    0.89080    0.23590    1.000
    C36      C        0.78900    0.93060    0.17230    1.000
    H32      H        0.83170    0.97780    0.15740    1.000
    C37      C        0.79730    0.75250    0.29110    1.000
    H33      H        0.86080    0.71670    0.29210    1.000
    H34      H        0.75500    0.68490    0.29790    1.000
    C38      C        0.80240    0.85430    0.33100    1.000
    H35      H        0.73800    0.87600    0.33560    1.000
    H36      H        0.83190    0.93020    0.32030    1.000
    C39      C        0.86060    0.80720    0.38020    1.000
    H37      H        0.82640    0.73890    0.39330    1.000
    H38      H        0.92180    0.77430    0.37460    1.000
    C40      C        0.82190    0.92510    0.45250    1.000
    H39      H        0.77470    0.86470    0.45450    1.000
    C41      C        0.83520    0.02600    0.48550    1.000
    H40      H        0.79790    0.03240    0.51030    1.000
    C42      C        0.90430    0.11880    0.48190    1.000
    C43      C        0.96000    0.10010    0.44560    1.000
    H41      H        0.00860    0.15790    0.44310    1.000
    C44      C        0.94610    0.00150    0.41390    1.000
    H42      H        0.98380    0.99270    0.38940    1.000
    C45      C        0.91900    0.23070    0.51650    1.000
    C46      C        0.56840    0.27070    0.98870    1.000
    C47      C        0.50770    0.37130    0.95750    1.000
    C48      C        0.54960    0.47440    0.93870    1.000
    H43      H        0.61620    0.48010    0.94270    1.000
    C49      C        0.49300    0.56760    0.91420    1.000
    H44      H        0.52140    0.63810    0.90230    1.000
    C50      C        0.35410    0.45890    0.92360    1.000
    H45      H        0.28740    0.45340    0.91760    1.000
    C51      C        0.40820    0.36390    0.94940    1.000
    H46      H        0.37830    0.29490    0.96150    1.000
    C52      C        0.33690    0.66470    0.88070    1.000
    H47      H        0.36780    0.74600    0.88960    1.000
    H48      H        0.27450    0.66540    0.89070    1.000
    C53      C        0.32530    0.64320    0.82510    1.000
    H49      H        0.29650    0.56040    0.81680    1.000
    H50      H        0.38800    0.64360    0.81550    1.000
    C54      C        0.26230    0.74540    0.79560    1.000
    H51      H        0.20490    0.75790    0.80990    1.000
    H52      H        0.29710    0.82520    0.79770    1.000
    C55      C        0.30230    0.67390    0.71560    1.000
    H53      H        0.36670    0.67400    0.73120    1.000
    C56      C        0.27750    0.64170    0.66580    1.000
    H54      H        0.32510    0.62470    0.64720    1.000
    C57      C        0.18260    0.63460    0.64330    1.000
    C58      C        0.11450    0.66480    0.67210    1.000
    H55      H        0.04940    0.65920    0.65830    1.000
    C59      C        0.14310    0.70300    0.72130    1.000
    H56      H        0.09740    0.72750    0.74000    1.000
    C60      C        0.15320    0.60120    0.58880    1.000
    N11      N        0.63470    0.98030    0.97070    1.000
    N12      N        0.64940    0.89730    0.94340    1.000
    N13      N        0.66170    0.81500    0.91620    1.000
    N14      N        0.86100    0.95670    0.02340    1.000
    N15      N        0.83680    0.85570    0.03700    1.000
    N16      N        0.81030    0.75900    0.04890    1.000
    N17      N        0.76110    0.80640    0.24040    1.000
    N18      N        0.87730    0.91420    0.41740    1.000
    N19      N        0.39720    0.55980    0.90690    1.000
    N20      N        0.23480    0.70530    0.74190    1.000
    O9       O        0.57770    0.94470    0.07480    1.000
    O10      O        0.71480    0.05540    0.08300    1.000
    O11      O        0.85470    0.24940    0.54360    1.000
    O12      O        0.99140    0.29570    0.51700    1.000
    O13      O        0.52490    0.19860    0.01420    1.000
    O14      O        0.65640    0.27470    0.98980    1.000
    O15      O        0.07510    0.54170    0.57630    1.000
    O16      O        0.20730    0.63970    0.56120    1.000
    Mn3      Mn       0.74738    0.39237    0.51081    1.000
    C61      C        0.65920    0.52470    0.59670    1.000
    C62      C        0.69500    0.58700    0.64790    1.000
    C63      C        0.63600    0.66280    0.67040    1.000
    H57      H        0.57310    0.67820    0.65440    1.000
    C64      C        0.66990    0.71510    0.71630    1.000
    H58      H        0.62970    0.76640    0.73130    1.000
    C65      C        0.81800    0.62330    0.71890    1.000
    H59      H        0.88050    0.60920    0.73590    1.000
    C66      C        0.78900    0.56940    0.67230    1.000
    H60      H        0.83170    0.52220    0.65740    1.000
    C67      C        0.79730    0.74750    0.79110    1.000
    H61      H        0.86080    0.78330    0.79210    1.000
    H62      H        0.75500    0.81510    0.79790    1.000
    C68      C        0.80240    0.64570    0.83100    1.000
    H63      H        0.73800    0.62400    0.83560    1.000
    H64      H        0.83190    0.56980    0.82030    1.000
    C69      C        0.86060    0.69280    0.88020    1.000
    H65      H        0.82640    0.76110    0.89330    1.000
    H66      H        0.92180    0.72570    0.87460    1.000
    C70      C        0.82190    0.57490    0.95250    1.000
    H67      H        0.77470    0.63530    0.95450    1.000
    C71      C        0.83520    0.47400    0.98550    1.000
    H68      H        0.79790    0.46760    0.01030    1.000
    C72      C        0.90430    0.38120    0.98190    1.000
    C73      C        0.96000    0.39990    0.94560    1.000
    H69      H        0.00860    0.34210    0.94310    1.000
    C74      C        0.94610    0.49850    0.91390    1.000
    H70      H        0.98380    0.50730    0.88940    1.000
    C75      C        0.91900    0.26930    0.01650    1.000
    C76      C        0.56840    0.22930    0.48870    1.000
    C77      C        0.50770    0.12870    0.45750    1.000
    C78      C        0.54960    0.02560    0.43870    1.000
    H71      H        0.61620    0.01990    0.44270    1.000
    C79      C        0.49300    0.93240    0.41420    1.000
    H72      H        0.52140    0.86190    0.40230    1.000
    C80      C        0.35410    0.04110    0.42360    1.000
    H73      H        0.28740    0.04660    0.41760    1.000
    C81      C        0.40820    0.13610    0.44940    1.000
    H74      H        0.37830    0.20510    0.46150    1.000
    C82      C        0.33690    0.83530    0.38070    1.000
    H75      H        0.36780    0.75400    0.38960    1.000
    H76      H        0.27450    0.83460    0.39070    1.000
    C83      C        0.32530    0.85680    0.32510    1.000
    H77      H        0.29650    0.93960    0.31680    1.000
    H78      H        0.38800    0.85640    0.31550    1.000
    C84      C        0.26230    0.75460    0.29560    1.000
    H79      H        0.20490    0.74210    0.30990    1.000
    H80      H        0.29710    0.67480    0.29770    1.000
    C85      C        0.30230    0.82610    0.21560    1.000
    H81      H        0.36670    0.82600    0.23120    1.000
    C86      C        0.27750    0.85830    0.16580    1.000
    H82      H        0.32510    0.87530    0.14720    1.000
    C87      C        0.18260    0.86540    0.14330    1.000
    C88      C        0.11450    0.83520    0.17210    1.000
    H83      H        0.04940    0.84080    0.15830    1.000
    C89      C        0.14310    0.79700    0.22130    1.000
    H84      H        0.09740    0.77250    0.24000    1.000
    C90      C        0.15320    0.89880    0.08880    1.000
    N21      N        0.63470    0.51970    0.47070    1.000
    N22      N        0.64940    0.60270    0.44340    1.000
    N23      N        0.66170    0.68500    0.41620    1.000
    N24      N        0.86100    0.54330    0.52340    1.000
    N25      N        0.83680    0.64430    0.53700    1.000
    N26      N        0.81030    0.74100    0.54890    1.000
    N27      N        0.76110    0.69360    0.74040    1.000
    N28      N        0.87730    0.58580    0.91740    1.000
    N29      N        0.39720    0.94020    0.40690    1.000
    N30      N        0.23480    0.79470    0.24190    1.000
    O17      O        0.57770    0.55530    0.57480    1.000
    O18      O        0.71480    0.44460    0.58300    1.000
    O19      O        0.85470    0.25060    0.04360    1.000
    O20      O        0.99140    0.20430    0.01700    1.000
    O21      O        0.52490    0.30140    0.51420    1.000
    O22      O        0.65640    0.22530    0.48980    1.000
    O23      O        0.07510    0.95830    0.07630    1.000
    O24      O        0.20730    0.86030    0.06120    1.000
    Mn4      Mn       0.25262    0.89237    0.98919    1.000
    C91      C        0.34080    0.02470    0.90330    1.000
    C92      C        0.30500    0.08700    0.85210    1.000
    C93      C        0.36400    0.16280    0.82960    1.000
    H85      H        0.42690    0.17820    0.84560    1.000
    C94      C        0.33010    0.21510    0.78370    1.000
    H86      H        0.37030    0.26640    0.76870    1.000
    C95      C        0.18200    0.12330    0.78110    1.000
    H87      H        0.11950    0.10920    0.76410    1.000
    C96      C        0.21100    0.06940    0.82770    1.000
    H88      H        0.16830    0.02220    0.84260    1.000
    C97      C        0.20270    0.24750    0.70890    1.000
    H89      H        0.13920    0.28330    0.70790    1.000
    H90      H        0.24500    0.31510    0.70210    1.000
    C98      C        0.19760    0.14570    0.66900    1.000
    H91      H        0.26200    0.12400    0.66440    1.000
    H92      H        0.16810    0.06980    0.67970    1.000
    C99      C        0.13940    0.19280    0.61980    1.000
    H93      H        0.17360    0.26110    0.60670    1.000
    H94      H        0.07820    0.22570    0.62540    1.000
    C100     C        0.17810    0.07490    0.54750    1.000
    H95      H        0.22530    0.13530    0.54550    1.000
    C101     C        0.16480    0.97400    0.51450    1.000
    H96      H        0.20210    0.96760    0.48970    1.000
    C102     C        0.09570    0.88120    0.51810    1.000
    C103     C        0.04000    0.89990    0.55440    1.000
    H97      H        0.99140    0.84210    0.55690    1.000
    C104     C        0.05390    0.99850    0.58610    1.000
    H98      H        0.01620    0.00730    0.61060    1.000
    C105     C        0.08100    0.76930    0.48350    1.000
    C106     C        0.43160    0.72930    0.01130    1.000
    C107     C        0.49230    0.62870    0.04250    1.000
    C108     C        0.45040    0.52560    0.06130    1.000
    H99      H        0.38380    0.51990    0.05730    1.000
    C109     C        0.50700    0.43240    0.08580    1.000
    H100     H        0.47860    0.36190    0.09770    1.000
    C110     C        0.64590    0.54110    0.07640    1.000
    H101     H        0.71260    0.54660    0.08240    1.000
    C111     C        0.59180    0.63610    0.05060    1.000
    H102     H        0.62170    0.70510    0.03850    1.000
    C112     C        0.66310    0.33530    0.11930    1.000
    H103     H        0.63220    0.25400    0.11040    1.000
    H104     H        0.72550    0.33460    0.10930    1.000
    C113     C        0.67470    0.35680    0.17490    1.000
    H105     H        0.70350    0.43960    0.18320    1.000
    H106     H        0.61200    0.35640    0.18450    1.000
    C114     C        0.73770    0.25460    0.20440    1.000
    H107     H        0.79510    0.24210    0.19010    1.000
    H108     H        0.70290    0.17480    0.20230    1.000
    C115     C        0.69770    0.32610    0.28440    1.000
    H109     H        0.63330    0.32600    0.26880    1.000
    C116     C        0.72250    0.35830    0.33420    1.000
    H110     H        0.67490    0.37530    0.35280    1.000
    C117     C        0.81740    0.36540    0.35670    1.000
    C118     C        0.88550    0.33520    0.32790    1.000
    H111     H        0.95060    0.34080    0.34170    1.000
    C119     C        0.85690    0.29700    0.27870    1.000
    H112     H        0.90260    0.27250    0.26000    1.000
    C120     C        0.84680    0.39880    0.41120    1.000
    N31      N        0.36530    0.01970    0.02930    1.000
    N32      N        0.35060    0.10270    0.05660    1.000
    N33      N        0.33830    0.18500    0.08380    1.000
    N34      N        0.13900    0.04330    0.97660    1.000
    N35      N        0.16320    0.14430    0.96300    1.000
    N36      N        0.18970    0.24100    0.95110    1.000
    N37      N        0.23890    0.19360    0.75960    1.000
    N38      N        0.12270    0.08580    0.58260    1.000
    N39      N        0.60280    0.44020    0.09310    1.000
    N40      N        0.76520    0.29470    0.25810    1.000
    O25      O        0.42230    0.05530    0.92520    1.000
    O26      O        0.28520    0.94460    0.91700    1.000
    O27      O        0.14530    0.75060    0.45640    1.000
    O28      O        0.00860    0.70430    0.48300    1.000
    O29      O        0.47510    0.80140    0.98580    1.000
    O30      O        0.34360    0.72530    0.01020    1.000
    O31      O        0.92490    0.45830    0.42370    1.000
    O32      O        0.79270    0.36030    0.43880    1.000
    Mn5      Mn       0.50000    0.50000    0.50000    1.000
    Mn6      Mn       0.50000    0.00000    0.00000    1.000
    Mn7      Mn       0.00000    0.00000    0.00000    1.000
    Mn8      Mn       0.00000    0.50000    0.50000    1.000
