# CIF file generated by openbabel 3.1.0, see https://openbabel.org
data_I
_chemical_name_common 'image0'
_cell_length_a 13.7249
_cell_length_b 13.7249
_cell_length_c 15.3316
_cell_angle_alpha 90
_cell_angle_beta 90
_cell_angle_gamma 120
_space_group_name_H-M_alt 'P 1'
_space_group_name_Hall 'P 1'
loop_
    _symmetry_equiv_pos_as_xyz
    x,y,z
loop_
    _atom_site_label
    _atom_site_type_symbol
    _atom_site_fract_x
    _atom_site_fract_y
    _atom_site_fract_z
    _atom_site_occupancy
    Zn1      Zn       0.24140    0.21390    0.09320    1.000
    P1       P        0.02000    0.22550    0.10530    1.000
    O1       O        0.13540    0.25410    0.13900    1.000
    O2       O        0.03080    0.29620    0.02520    1.000
    O3       O        0.95680    0.24440    0.17670    1.000
    O4       O        0.95330    0.09990    0.07860    1.000
    Zn2      Zn       0.90807    0.54723    0.42653    1.000
    P2       P        0.68667    0.55883    0.43863    1.000
    O5       O        0.80207    0.58743    0.47233    1.000
    O6       O        0.69747    0.62953    0.35853    1.000
    O7       O        0.62347    0.57773    0.51003    1.000
    O8       O        0.61997    0.43323    0.41193    1.000
    Zn3      Zn       0.57473    0.88057    0.75987    1.000
    P3       P        0.35333    0.89217    0.77197    1.000
    O9       O        0.46873    0.92077    0.80567    1.000
    O10      O        0.36413    0.96287    0.69187    1.000
    O11      O        0.29013    0.91107    0.84337    1.000
    O12      O        0.28663    0.76657    0.74527    1.000
    Zn4      Zn       0.78610    0.02750    0.09320    1.000
    P4       P        0.77450    0.79450    0.10530    1.000
    O13      O        0.74590    0.88130    0.13900    1.000
    O14      O        0.70380    0.73460    0.02520    1.000
    O15      O        0.75560    0.71240    0.17670    1.000
    O16      O        0.90010    0.85340    0.07860    1.000
    Zn5      Zn       0.45277    0.36083    0.42653    1.000
    P5       P        0.44117    0.12783    0.43863    1.000
    O17      O        0.41257    0.21463    0.47233    1.000
    O18      O        0.37047    0.06793    0.35853    1.000
    O19      O        0.42227    0.04573    0.51003    1.000
    O20      O        0.56677    0.18673    0.41193    1.000
    Zn6      Zn       0.11943    0.69417    0.75987    1.000
    P6       P        0.10783    0.46117    0.77197    1.000
    O21      O        0.07923    0.54797    0.80567    1.000
    O22      O        0.03713    0.40127    0.69187    1.000
    O23      O        0.08893    0.37907    0.84337    1.000
    O24      O        0.23343    0.52007    0.74527    1.000
    Zn7      Zn       0.97250    0.75860    0.09320    1.000
    P7       P        0.20550    0.98000    0.10530    1.000
    O25      O        0.11870    0.86460    0.13900    1.000
    O26      O        0.26540    0.96920    0.02520    1.000
    O27      O        0.28760    0.04320    0.17670    1.000
    O28      O        0.14660    0.04670    0.07860    1.000
    Zn8      Zn       0.63917    0.09193    0.42653    1.000
    P8       P        0.87217    0.31333    0.43863    1.000
    O29      O        0.78537    0.19793    0.47233    1.000
    O30      O        0.93207    0.30253    0.35853    1.000
    O31      O        0.95427    0.37653    0.51003    1.000
    O32      O        0.81327    0.38003    0.41193    1.000
    Zn9      Zn       0.30583    0.42527    0.75987    1.000
    P9       P        0.53883    0.64667    0.77197    1.000
    O33      O        0.45203    0.53127    0.80567    1.000
    O34      O        0.59873    0.63587    0.69187    1.000
    O35      O        0.62093    0.70987    0.84337    1.000
    O36      O        0.47993    0.71337    0.74527    1.000
    Zn10     Zn       0.75860    0.78610    0.90680    1.000
    P10      P        0.98000    0.77450    0.89470    1.000
    O37      O        0.86460    0.74590    0.86100    1.000
    O38      O        0.96920    0.70380    0.97480    1.000
    O39      O        0.04320    0.75560    0.82330    1.000
    O40      O        0.04670    0.90010    0.92140    1.000
    Zn11     Zn       0.42527    0.11943    0.24013    1.000
    P11      P        0.64667    0.10783    0.22803    1.000
    O41      O        0.53127    0.07923    0.19433    1.000
    O42      O        0.63587    0.03713    0.30813    1.000
    O43      O        0.70987    0.08893    0.15663    1.000
    O44      O        0.71337    0.23343    0.25473    1.000
    Zn12     Zn       0.09193    0.45277    0.57347    1.000
    P12      P        0.31333    0.44117    0.56137    1.000
    O45      O        0.19793    0.41257    0.52767    1.000
    O46      O        0.30253    0.37047    0.64147    1.000
    O47      O        0.37653    0.42227    0.48997    1.000
    O48      O        0.38003    0.56677    0.58807    1.000
    Zn13     Zn       0.21390    0.97250    0.90680    1.000
    P13      P        0.22550    0.20550    0.89470    1.000
    O49      O        0.25410    0.11870    0.86100    1.000
    O50      O        0.29620    0.26540    0.97480    1.000
    O51      O        0.24440    0.28760    0.82330    1.000
    O52      O        0.09990    0.14660    0.92140    1.000
    Zn14     Zn       0.88057    0.30583    0.24013    1.000
    P14      P        0.89217    0.53883    0.22803    1.000
    O53      O        0.92077    0.45203    0.19433    1.000
    O54      O        0.96287    0.59873    0.30813    1.000
    O55      O        0.91107    0.62093    0.15663    1.000
    O56      O        0.76657    0.47993    0.25473    1.000
    Zn15     Zn       0.54723    0.63917    0.57347    1.000
    P15      P        0.55883    0.87217    0.56137    1.000
    O57      O        0.58743    0.78537    0.52767    1.000
    O58      O        0.62953    0.93207    0.64147    1.000
    O59      O        0.57773    0.95427    0.48997    1.000
    O60      O        0.43323    0.81327    0.58807    1.000
    Zn16     Zn       0.02750    0.24140    0.90680    1.000
    P16      P        0.79450    0.02000    0.89470    1.000
    O61      O        0.88130    0.13540    0.86100    1.000
    O62      O        0.73460    0.03080    0.97480    1.000
    O63      O        0.71240    0.95680    0.82330    1.000
    O64      O        0.85340    0.95330    0.92140    1.000
    Zn17     Zn       0.69417    0.57473    0.24013    1.000
    P17      P        0.46117    0.35333    0.22803    1.000
    O65      O        0.54797    0.46873    0.19433    1.000
    O66      O        0.40127    0.36413    0.30813    1.000
    O67      O        0.37907    0.29013    0.15663    1.000
    O68      O        0.52007    0.28663    0.25473    1.000
    Zn18     Zn       0.36083    0.90807    0.57347    1.000
    P18      P        0.12783    0.68667    0.56137    1.000
    O69      O        0.21463    0.80207    0.52767    1.000
    O70      O        0.06793    0.69747    0.64147    1.000
    O71      O        0.04573    0.62347    0.48997    1.000
    O72      O        0.18673    0.61997    0.58807    1.000
    Zn19     Zn       0.00000    0.00000    0.00000    1.000
    Zn20     Zn       0.66667    0.33333    0.33333    1.000
    Zn21     Zn       0.33333    0.66667    0.66667    1.000
