# CIF file generated by openbabel 3.1.0, see https://openbabel.org
data_I
_chemical_name_common 'image0'
_cell_length_a 7.5817
_cell_length_b 10.4787
_cell_length_c 21.663
_cell_angle_alpha 90
_cell_angle_beta 90
_cell_angle_gamma 90
_space_group_name_H-M_alt 'P 1'
_space_group_name_Hall 'P 1'
loop_
    _symmetry_equiv_pos_as_xyz
    x,y,z
loop_
    _atom_site_label
    _atom_site_type_symbol
    _atom_site_fract_x
    _atom_site_fract_y
    _atom_site_fract_z
    _atom_site_occupancy
    Ag1      Ag       0.72680    0.77045    0.13100    1.000
    N1       N        0.84860    0.97209    0.12849    1.000
    N2       N        0.16340    0.17830    0.27796    1.000
    H1       H        0.24380    0.19690    0.24740    1.000
    H2       H        0.16760    0.09140    0.28370    1.000
    N3       N        0.84710    0.66354    0.04631    1.000
    N4       N        0.92910    0.75491    0.84582    1.000
    H3       H        0.89570    0.83500    0.85870    1.000
    H4       H        0.91740    0.75300    0.80360    1.000
    C1       C        0.93450    0.01970    0.07964    1.000
    H5       H        0.92700    0.97510    0.04160    1.000
    C2       C        0.03300    0.13010    0.08177    1.000
    H6       H        0.08940    0.16180    0.04570    1.000
    C3       C        0.86390    0.03670    0.18227    1.000
    H7       H        0.80360    0.00460    0.21740    1.000
    C4       C        0.04850    0.19460    0.13798    1.000
    H8       H        0.11720    0.27020    0.14090    1.000
    C5       C        0.96250    0.14690    0.18901    1.000
    C6       C        0.80270    0.66190    0.87210    1.000
    H9       H        0.79780    0.58530    0.84540    1.000
    H10      H        0.68350    0.70030    0.87320    1.000
    C7       C        0.85680    0.62310    0.93677    1.000
    C8       C        0.96390    0.51800    0.94676    1.000
    H11      H        0.00460    0.46820    0.91300    1.000
    C9       C        0.01120    0.48660    0.00709    1.000
    H12      H        0.08380    0.41470    0.01520    1.000
    C10      C        0.98780    0.20680    0.25211    1.000
    H13      H        0.97310    0.30040    0.24880    1.000
    H14      H        0.89590    0.17420    0.28050    1.000
    C11      C        0.95000    0.56240    0.05496    1.000
    H15      H        0.98320    0.54100    0.09600    1.000
    C12      C        0.80300    0.69290    0.98755    1.000
    H16      H        0.73080    0.76560    0.98080    1.000
    Ag2      Ag       0.77320    0.22955    0.63100    1.000
    N5       N        0.65140    0.02791    0.62849    1.000
    N6       N        0.33660    0.82170    0.77796    1.000
    H17      H        0.25620    0.80310    0.74740    1.000
    H18      H        0.33240    0.90860    0.78370    1.000
    N7       N        0.65290    0.33646    0.54631    1.000
    N8       N        0.57090    0.24509    0.34582    1.000
    H19      H        0.60430    0.16500    0.35870    1.000
    H20      H        0.58260    0.24700    0.30360    1.000
    C13      C        0.56550    0.98030    0.57964    1.000
    H21      H        0.57300    0.02490    0.54160    1.000
    C14      C        0.46700    0.86990    0.58177    1.000
    H22      H        0.41060    0.83820    0.54570    1.000
    C15      C        0.63610    0.96330    0.68227    1.000
    H23      H        0.69640    0.99540    0.71740    1.000
    C16      C        0.45150    0.80540    0.63798    1.000
    H24      H        0.38280    0.72980    0.64090    1.000
    C17      C        0.53750    0.85310    0.68901    1.000
    C18      C        0.69730    0.33810    0.37210    1.000
    H25      H        0.70220    0.41470    0.34540    1.000
    H26      H        0.81650    0.29970    0.37320    1.000
    C19      C        0.64320    0.37690    0.43677    1.000
    C20      C        0.53610    0.48200    0.44676    1.000
    H27      H        0.49540    0.53180    0.41300    1.000
    C21      C        0.48880    0.51340    0.50709    1.000
    H28      H        0.41620    0.58530    0.51520    1.000
    C22      C        0.51220    0.79320    0.75211    1.000
    H29      H        0.52690    0.69960    0.74880    1.000
    H30      H        0.60410    0.82580    0.78050    1.000
    C23      C        0.55000    0.43760    0.55496    1.000
    H31      H        0.51680    0.45900    0.59600    1.000
    C24      C        0.69700    0.30710    0.48755    1.000
    H32      H        0.76920    0.23440    0.48080    1.000
    Ag3      Ag       0.27320    0.27045    0.36900    1.000
    N9       N        0.15140    0.47209    0.37151    1.000
    N10      N        0.83660    0.67830    0.22204    1.000
    H33      H        0.75620    0.69690    0.25260    1.000
    H34      H        0.83240    0.59140    0.21630    1.000
    N11      N        0.15290    0.16354    0.45369    1.000
    N12      N        0.07090    0.25491    0.65418    1.000
    H35      H        0.10430    0.33500    0.64130    1.000
    H36      H        0.08260    0.25300    0.69640    1.000
    C25      C        0.06550    0.51970    0.42036    1.000
    H37      H        0.07300    0.47510    0.45840    1.000
    C26      C        0.96700    0.63010    0.41823    1.000
    H38      H        0.91060    0.66180    0.45430    1.000
    C27      C        0.13610    0.53670    0.31773    1.000
    H39      H        0.19640    0.50460    0.28260    1.000
    C28      C        0.95150    0.69460    0.36202    1.000
    H40      H        0.88280    0.77020    0.35910    1.000
    C29      C        0.03750    0.64690    0.31099    1.000
    C30      C        0.19730    0.16190    0.62790    1.000
    H41      H        0.20220    0.08530    0.65460    1.000
    H42      H        0.31650    0.20030    0.62680    1.000
    C31      C        0.14320    0.12310    0.56323    1.000
    C32      C        0.03610    0.01800    0.55324    1.000
    H43      H        0.99540    0.96820    0.58700    1.000
    C33      C        0.98880    0.98660    0.49291    1.000
    H44      H        0.91620    0.91470    0.48480    1.000
    C34      C        0.01220    0.70680    0.24789    1.000
    H45      H        0.02690    0.80040    0.25120    1.000
    H46      H        0.10410    0.67420    0.21950    1.000
    C35      C        0.05000    0.06240    0.44504    1.000
    H47      H        0.01680    0.04100    0.40400    1.000
    C36      C        0.19700    0.19290    0.51245    1.000
    H48      H        0.26920    0.26560    0.51920    1.000
    Ag4      Ag       0.22680    0.72955    0.86900    1.000
    N13      N        0.34860    0.52791    0.87151    1.000
    N14      N        0.66340    0.32170    0.72204    1.000
    H49      H        0.74380    0.30310    0.75260    1.000
    H50      H        0.66760    0.40860    0.71630    1.000
    N15      N        0.34710    0.83646    0.95369    1.000
    N16      N        0.42910    0.74509    0.15418    1.000
    H51      H        0.39570    0.66500    0.14130    1.000
    H52      H        0.41740    0.74700    0.19640    1.000
    C37      C        0.43450    0.48030    0.92036    1.000
    H53      H        0.42700    0.52490    0.95840    1.000
    C38      C        0.53300    0.36990    0.91823    1.000
    H54      H        0.58940    0.33820    0.95430    1.000
    C39      C        0.36390    0.46330    0.81773    1.000
    H55      H        0.30360    0.49540    0.78260    1.000
    C40      C        0.54850    0.30540    0.86202    1.000
    H56      H        0.61720    0.22980    0.85910    1.000
    C41      C        0.46250    0.35310    0.81099    1.000
    C42      C        0.30270    0.83810    0.12790    1.000
    H57      H        0.29780    0.91470    0.15460    1.000
    H58      H        0.18350    0.79970    0.12680    1.000
    C43      C        0.35680    0.87690    0.06323    1.000
    C44      C        0.46390    0.98200    0.05324    1.000
    H59      H        0.50460    0.03180    0.08700    1.000
    C45      C        0.51120    0.01340    0.99291    1.000
    H60      H        0.58380    0.08530    0.98480    1.000
    C46      C        0.48780    0.29320    0.74789    1.000
    H61      H        0.47310    0.19960    0.75120    1.000
    H62      H        0.39590    0.32580    0.71950    1.000
    C47      C        0.45000    0.93760    0.94504    1.000
    H63      H        0.48320    0.95900    0.90400    1.000
    C48      C        0.30300    0.80710    0.01245    1.000
    H64      H        0.23080    0.73440    0.01920    1.000
