# CIF file generated by openbabel 3.1.0, see https://openbabel.org
data_I
_chemical_name_common 'jp102463p_si_002_clean'
_cell_length_a 6.847
_cell_length_b 11.1912
_cell_length_c 11.1912
_cell_angle_alpha 71.9301
_cell_angle_beta 72.1871
_cell_angle_gamma 72.1871
_space_group_name_H-M_alt 'P 1'
_space_group_name_Hall 'P 1'
loop_
    _symmetry_equiv_pos_as_xyz
    x,y,z
loop_
    _atom_site_label
    _atom_site_type_symbol
    _atom_site_fract_x
    _atom_site_fract_y
    _atom_site_fract_z
    _atom_site_occupancy
    Cr1      Cr       0.00000    0.00000    0.50000    1.000
    Cr2      Cr       0.50000    0.00000    0.50000    1.000
    H1       H        0.74600    0.00100    0.88700    1.000
    H2       H        0.75400    0.61300    0.49900    1.000
    H3       H        0.86600    0.38700    0.50100    1.000
    H4       H        0.36600    0.00100    0.88700    1.000
    H5       H        0.25400    0.99900    0.11300    1.000
    H6       H        0.13400    0.61300    0.49900    1.000
    H7       H        0.63400    0.99900    0.11300    1.000
    H8       H        0.24600    0.38700    0.50100    1.000
    C1       C        0.43100    0.63300    0.50500    1.000
    C2       C        0.64200    0.22700    0.48900    1.000
    C3       C        0.13500    0.99900    0.06700    1.000
    C4       C        0.70100    0.43300    0.50100    1.000
    C5       C        0.35800    0.77300    0.51100    1.000
    C6       C        0.14200    0.98900    0.72700    1.000
    C7       C        0.29900    0.56700    0.49900    1.000
    C8       C        0.20100    0.00100    0.93300    1.000
    C9       C        0.86500    0.00100    0.93300    1.000
    C10      C        0.93100    0.00500    0.13300    1.000
    C11      C        0.79900    0.99900    0.06700    1.000
    C12      C        0.06900    0.99500    0.86700    1.000
    C13      C        0.56900    0.36700    0.49500    1.000
    C14      C        0.85800    0.01100    0.27300    1.000
    C15      C        0.63500    0.56700    0.49900    1.000
    C16      C        0.36500    0.43300    0.50100    1.000
    O1       O        0.81900    0.17800    0.49200    1.000
    O2       O        0.68100    0.00800    0.32200    1.000
    O3       O        0.31900    0.99200    0.67800    1.000
    O4       O        0.48900    0.82200    0.50800    1.000
    O5       O        0.25000    0.05000    0.45000    1.000
    O6       O        0.01100    0.99200    0.67800    1.000
    O7       O        0.98900    0.00800    0.32200    1.000
    O8       O        0.18100    0.82200    0.50800    1.000
    O9       O        0.51100    0.17800    0.49200    1.000
    O10      O        0.75000    0.95000    0.55000    1.000
