# CIF file generated by openbabel 3.1.0, see https://openbabel.org
data_I
_chemical_name_common 'image0'
_cell_length_a 11.4198
_cell_length_b 9.8979
_cell_length_c 18.4392
_cell_angle_alpha 90
_cell_angle_beta 126.853
_cell_angle_gamma 90
_space_group_name_H-M_alt 'P 1'
_space_group_name_Hall 'P 1'
loop_
    _symmetry_equiv_pos_as_xyz
    x,y,z
loop_
    _atom_site_label
    _atom_site_type_symbol
    _atom_site_fract_x
    _atom_site_fract_y
    _atom_site_fract_z
    _atom_site_occupancy
    Fe1      Fe       0.37725    0.08216    0.13297    1.000
    Fe2      Fe       0.42781    0.10670    0.68833    1.000
    O1       O        0.43710    0.20280    0.24630    1.000
    O2       O        0.54970    0.06430    0.36579    1.000
    O3       O        0.58950    0.99840    0.21840    1.000
    O4       O        0.67630    0.99990    0.13793    1.000
    O5       O        0.45470    0.25940    0.10745    1.000
    O6       O        0.48430    0.20980    0.00171    1.000
    O7       O        0.34530    0.91860    0.19548    1.000
    O8       O        0.10470    0.89450    0.11953    1.000
    O9       O        0.33650    0.97540    0.02278    1.000
    O10      O        0.11470    0.89550    0.96580    1.000
    O11      O        0.15970    0.15580    0.06076    1.000
    O12      O        0.20330    0.37700    0.09432    1.000
    C1       C        0.49620    0.17350    0.32920    1.000
    H1       H        0.49870    0.24130    0.36490    1.000
    C2       C        0.69130    0.98650    0.20960    1.000
    H2       H        0.78440    0.96590    0.26130    1.000
    C3       C        0.47420    0.28940    0.04920    1.000
    H3       H        0.48170    0.38080    0.04100    1.000
    C4       C        0.23190    0.87030    0.18290    1.000
    H4       H        0.24680    0.81010    0.22650    1.000
    C5       C        0.22390    0.90290    0.96830    1.000
    H5       H        0.22490    0.85100    0.92670    1.000
    C6       C        0.11960    0.28030    0.05320    1.000
    H6       H        0.02000    0.29870    0.01380    1.000
    Fe3      Fe       0.62275    0.58216    0.36703    1.000
    Fe4      Fe       0.57219    0.60670    0.81167    1.000
    O13      O        0.56290    0.70280    0.25370    1.000
    O14      O        0.45030    0.56430    0.13421    1.000
    O15      O        0.41050    0.49840    0.28160    1.000
    O16      O        0.32370    0.49990    0.36207    1.000
    O17      O        0.54530    0.75940    0.39255    1.000
    O18      O        0.51570    0.70980    0.49829    1.000
    O19      O        0.65470    0.41860    0.30452    1.000
    O20      O        0.89530    0.39450    0.38047    1.000
    O21      O        0.66350    0.47540    0.47722    1.000
    O22      O        0.88530    0.39550    0.53420    1.000
    O23      O        0.84030    0.65580    0.43924    1.000
    O24      O        0.79670    0.87700    0.40568    1.000
    C7       C        0.50380    0.67350    0.17080    1.000
    H7       H        0.50130    0.74130    0.13510    1.000
    C8       C        0.30870    0.48650    0.29040    1.000
    H8       H        0.21560    0.46590    0.23870    1.000
    C9       C        0.52580    0.78940    0.45080    1.000
    H9       H        0.51830    0.88080    0.45900    1.000
    C10      C        0.76810    0.37030    0.31710    1.000
    H10      H        0.75320    0.31010    0.27350    1.000
    C11      C        0.77610    0.40290    0.53170    1.000
    H11      H        0.77510    0.35100    0.57330    1.000
    C12      C        0.88040    0.78030    0.44680    1.000
    H12      H        0.98000    0.79870    0.48620    1.000
    Fe5      Fe       0.62275    0.91784    0.86703    1.000
    Fe6      Fe       0.57219    0.89330    0.31167    1.000
    O25      O        0.56290    0.79720    0.75370    1.000
    O26      O        0.45030    0.93570    0.63421    1.000
    O27      O        0.41050    0.00160    0.78160    1.000
    O28      O        0.32370    0.00010    0.86207    1.000
    O29      O        0.54530    0.74060    0.89255    1.000
    O30      O        0.51570    0.79020    0.99829    1.000
    O31      O        0.65470    0.08140    0.80452    1.000
    O32      O        0.89530    0.10550    0.88047    1.000
    O33      O        0.66350    0.02460    0.97722    1.000
    O34      O        0.88530    0.10450    0.03420    1.000
    O35      O        0.84030    0.84420    0.93924    1.000
    O36      O        0.79670    0.62300    0.90568    1.000
    C13      C        0.50380    0.82650    0.67080    1.000
    H13      H        0.50130    0.75870    0.63510    1.000
    C14      C        0.30870    0.01350    0.79040    1.000
    H14      H        0.21560    0.03410    0.73870    1.000
    C15      C        0.52580    0.71060    0.95080    1.000
    H15      H        0.51830    0.61920    0.95900    1.000
    C16      C        0.76810    0.12970    0.81710    1.000
    H16      H        0.75320    0.18990    0.77350    1.000
    C17      C        0.77610    0.09710    0.03170    1.000
    H17      H        0.77510    0.14900    0.07330    1.000
    C18      C        0.88040    0.71970    0.94680    1.000
    H18      H        0.98000    0.70130    0.98620    1.000
    Fe7      Fe       0.37725    0.41784    0.63297    1.000
    Fe8      Fe       0.42781    0.39330    0.18833    1.000
    O37      O        0.43710    0.29720    0.74630    1.000
    O38      O        0.54970    0.43570    0.86579    1.000
    O39      O        0.58950    0.50160    0.71840    1.000
    O40      O        0.67630    0.50010    0.63793    1.000
    O41      O        0.45470    0.24060    0.60745    1.000
    O42      O        0.48430    0.29020    0.50171    1.000
    O43      O        0.34530    0.58140    0.69548    1.000
    O44      O        0.10470    0.60550    0.61953    1.000
    O45      O        0.33650    0.52460    0.52278    1.000
    O46      O        0.11470    0.60450    0.46580    1.000
    O47      O        0.15970    0.34420    0.56076    1.000
    O48      O        0.20330    0.12300    0.59432    1.000
    C19      C        0.49620    0.32650    0.82920    1.000
    H19      H        0.49870    0.25870    0.86490    1.000
    C20      C        0.69130    0.51350    0.70960    1.000
    H20      H        0.78440    0.53410    0.76130    1.000
    C21      C        0.47420    0.21060    0.54920    1.000
    H21      H        0.48170    0.11920    0.54100    1.000
    C22      C        0.23190    0.62970    0.68290    1.000
    H22      H        0.24680    0.68990    0.72650    1.000
    C23      C        0.22390    0.59710    0.46830    1.000
    H23      H        0.22490    0.64900    0.42670    1.000
    C24      C        0.11960    0.21970    0.55320    1.000
    H24      H        0.02000    0.20130    0.51380    1.000
    Fe9      Fe       0.50000    0.00000    0.00000    1.000
    Fe10     Fe       0.50000    0.50000    0.50000    1.000
    Fe11     Fe       0.00000    0.00000    0.00000    1.000
    Fe12     Fe       0.00000    0.50000    0.50000    1.000
