# CIF file generated by openbabel 3.1.0, see https://openbabel.org
data_I
_chemical_name_common 'image0'
_cell_length_a 16.0971
_cell_length_b 19.5272
_cell_length_c 14.4098
_cell_angle_alpha 90
_cell_angle_beta 101.346
_cell_angle_gamma 90
_space_group_name_H-M_alt 'P 1'
_space_group_name_Hall 'P 1'
loop_
    _symmetry_equiv_pos_as_xyz
    x,y,z
loop_
    _atom_site_label
    _atom_site_type_symbol
    _atom_site_fract_x
    _atom_site_fract_y
    _atom_site_fract_z
    _atom_site_occupancy
    Ag1      Ag       0.20507    0.28616    0.12341    1.000
    N1       N        0.10621    0.38208    0.08170    1.000
    N2       N        0.33412    0.33840    0.11650    1.000
    N3       N        0.23140    0.30893    0.28830    1.000
    N4       N        0.12526    0.20976    0.03310    1.000
    C1       C        0.13640    0.44374    0.06560    1.000
    C2       C        0.04200    0.38000    0.12850    1.000
    H1       H        0.18030    0.44580    0.03020    1.000
    C3       C        0.10800    0.50540    0.09720    1.000
    C4       C        0.00780    0.43770    0.16020    1.000
    H2       H        0.01930    0.33670    0.14020    1.000
    C5       C        0.04210    0.50020    0.14560    1.000
    C6       C        0.14490    0.57117    0.07680    1.000
    H3       H        0.96130    0.43450    0.19170    1.000
    H4       H        0.02030    0.54040    0.16910    1.000
    C7       C        0.09570    0.62982    0.06450    1.000
    C8       C        0.22920    0.57707    0.06770    1.000
    H5       H        0.03860    0.62770    0.07270    1.000
    C9       C        0.12800    0.69106    0.04060    1.000
    C10      C        0.26180    0.63909    0.04700    1.000
    H6       H        0.26460    0.53770    0.07590    1.000
    H7       H        0.09230    0.73020    0.03070    1.000
    C11      C        0.21160    0.69687    0.03070    1.000
    H8       H        0.32010    0.64220    0.04380    1.000
    C12      C        0.24470    0.76509    0.01020    1.000
    C13      C        0.31800    0.78914    0.08480    1.000
    C14      C        0.20700    0.80285    0.93500    1.000
    C15      C        0.38980    0.81840    0.06320    1.000
    C16      C        0.31300    0.78048    0.17820    1.000
    C17      C        0.22500    0.87739    0.92510    1.000
    C18      C        0.14430    0.77226    0.85600    1.000
    C19      C        0.45580    0.83860    0.13540    1.000
    H9       H        0.39410    0.82480    0.99890    1.000
    H10      H        0.26440    0.75930    0.19360    1.000
    C20      C        0.37780    0.80210    0.25030    1.000
    C21      C        0.23520    0.90425    0.83850    1.000
    C22      C        0.22890    0.92189    0.00030    1.000
    C23      C        0.16190    0.71084    0.81440    1.000
    C24      C        0.06750    0.80399    0.81820    1.000
    C25      C        0.44950    0.83140    0.22940    1.000
    H11      H        0.50590    0.85740    0.12010    1.000
    H12      H        0.37260    0.79670    0.31440    1.000
    C26      C        0.24990    0.97274    0.82790    1.000
    H13      H        0.23180    0.87450    0.78570    1.000
    H14      H        0.22160    0.90490    0.05990    1.000
    C27      C        0.24320    0.99089    0.98950    1.000
    C28      C        0.10810    0.68419    0.73610    1.000
    H15      H        0.21220    0.68670    0.84060    1.000
    H16      H        0.05310    0.84560    0.84530    1.000
    C29      C        0.01190    0.77627    0.74200    1.000
    C30      C        0.51950    0.85150    0.30860    1.000
    C31      C        0.25330    0.01793    0.90320    1.000
    H17      H        0.25800    0.98950    0.76840    1.000
    H18      H        0.24640    0.02060    0.04240    1.000
    C32      C        0.03220    0.71655    0.69780    1.000
    H19      H        0.12320    0.64320    0.70810    1.000
    H20      H        0.95910    0.79810    0.71940    1.000
    C33      C        0.60000    0.82692    0.31260    1.000
    C34      C        0.50610    0.89210    0.38250    1.000
    C35      C        0.26430    0.09239    0.89060    1.000
    C36      C        0.97690    0.68843    0.61100    1.000
    H21      H        0.60970    0.79970    0.26110    1.000
    H22      H        0.45170    0.91080    0.38280    1.000
    C37      C        0.57370    0.90500    0.45670    1.000
    C38      C        0.22600    0.12369    0.80690    1.000
    C39      C        0.30990    0.13440    0.95990    1.000
    C40      C        0.92310    0.73083    0.54890    1.000
    C41      C        0.98000    0.62043    0.58390    1.000
    C42      C        0.65060    0.87760    0.45440    1.000
    H23      H        0.56610    0.93280    0.50850    1.000
    H24      H        0.19360    0.09570    0.75910    1.000
    H25      H        0.33730    0.11580    0.01890    1.000
    C43      C        0.31520    0.20380    0.94230    1.000
    H26      H        0.92020    0.77770    0.56550    1.000
    H27      H        0.01530    0.58900    0.62390    1.000
    C44      C        0.93240    0.59829    0.49970    1.000
    H28      H        0.69610    0.88670    0.50590    1.000
    C45      C        0.27600    0.22980    0.85690    1.000
    H29      H        0.34590    0.23320    0.98940    1.000
    C46      C        0.88030    0.64398    0.44340    1.000
    H30      H        0.93540    0.55200    0.48050    1.000
    H31      H        0.28060    0.27750    0.84580    1.000
    H32      H        0.84690    0.62820    0.38560    1.000
    Ag2      Ag       0.79493    0.78616    0.37659    1.000
    N5       N        0.89379    0.88208    0.41830    1.000
    N6       N        0.66588    0.83840    0.38350    1.000
    N7       N        0.76860    0.80893    0.21170    1.000
    N8       N        0.87474    0.70976    0.46690    1.000
    C47      C        0.86360    0.94374    0.43440    1.000
    C48      C        0.95800    0.88000    0.37150    1.000
    H33      H        0.81970    0.94580    0.46980    1.000
    C49      C        0.89200    0.00540    0.40280    1.000
    C50      C        0.99220    0.93770    0.33980    1.000
    H34      H        0.98070    0.83670    0.35980    1.000
    C51      C        0.95790    0.00020    0.35440    1.000
    C52      C        0.85510    0.07117    0.42320    1.000
    H35      H        0.03870    0.93450    0.30830    1.000
    H36      H        0.97970    0.04040    0.33090    1.000
    C53      C        0.90430    0.12982    0.43550    1.000
    C54      C        0.77080    0.07707    0.43230    1.000
    H37      H        0.96140    0.12770    0.42730    1.000
    C55      C        0.87200    0.19106    0.45940    1.000
    C56      C        0.73820    0.13909    0.45300    1.000
    H38      H        0.73540    0.03770    0.42410    1.000
    H39      H        0.90770    0.23020    0.46930    1.000
    C57      C        0.78840    0.19687    0.46930    1.000
    H40      H        0.67990    0.14220    0.45620    1.000
    C58      C        0.75530    0.26509    0.48980    1.000
    C59      C        0.68200    0.28914    0.41520    1.000
    C60      C        0.79300    0.30285    0.56500    1.000
    C61      C        0.61020    0.31840    0.43680    1.000
    C62      C        0.68700    0.28048    0.32180    1.000
    C63      C        0.77500    0.37739    0.57490    1.000
    C64      C        0.85570    0.27226    0.64400    1.000
    C65      C        0.54420    0.33860    0.36460    1.000
    H41      H        0.60590    0.32480    0.50110    1.000
    H42      H        0.73560    0.25930    0.30640    1.000
    C66      C        0.62220    0.30210    0.24970    1.000
    C67      C        0.76480    0.40425    0.66150    1.000
    C68      C        0.77110    0.42189    0.49970    1.000
    C69      C        0.83810    0.21084    0.68560    1.000
    C70      C        0.93250    0.30399    0.68180    1.000
    C71      C        0.55050    0.33140    0.27060    1.000
    H43      H        0.49410    0.35740    0.37990    1.000
    H44      H        0.62740    0.29670    0.18560    1.000
    C72      C        0.75010    0.47274    0.67210    1.000
    H45      H        0.76820    0.37450    0.71430    1.000
    H46      H        0.77840    0.40490    0.44010    1.000
    C73      C        0.75680    0.49089    0.51050    1.000
    C74      C        0.89190    0.18419    0.76390    1.000
    H47      H        0.78780    0.18670    0.65940    1.000
    H48      H        0.94690    0.34560    0.65470    1.000
    C75      C        0.98810    0.27627    0.75800    1.000
    C76      C        0.48050    0.35150    0.19140    1.000
    C77      C        0.74670    0.51793    0.59680    1.000
    H49      H        0.74200    0.48950    0.73160    1.000
    H50      H        0.75360    0.52060    0.45760    1.000
    C78      C        0.96780    0.21655    0.80220    1.000
    H51      H        0.87680    0.14320    0.79190    1.000
    H52      H        0.04090    0.29810    0.78060    1.000
    C79      C        0.40000    0.32692    0.18740    1.000
    C80      C        0.49390    0.39210    0.11750    1.000
    C81      C        0.73570    0.59239    0.60940    1.000
    C82      C        0.02310    0.18843    0.88900    1.000
    H53      H        0.39030    0.29970    0.23890    1.000
    H54      H        0.54830    0.41080    0.11720    1.000
    C83      C        0.42630    0.40500    0.04330    1.000
    C84      C        0.77400    0.62369    0.69310    1.000
    C85      C        0.69010    0.63440    0.54010    1.000
    C86      C        0.07690    0.23083    0.95110    1.000
    C87      C        0.02000    0.12043    0.91610    1.000
    C88      C        0.34940    0.37760    0.04560    1.000
    H55      H        0.43390    0.43280    0.99150    1.000
    H56      H        0.80640    0.59570    0.74090    1.000
    H57      H        0.66270    0.61580    0.48110    1.000
    C89      C        0.68480    0.70380    0.55770    1.000
    H58      H        0.07980    0.27770    0.93450    1.000
    H59      H        0.98470    0.08900    0.87610    1.000
    C90      C        0.06760    0.09829    0.00030    1.000
    H60      H        0.30390    0.38670    0.99410    1.000
    C91      C        0.72400    0.72980    0.64310    1.000
    H61      H        0.65410    0.73320    0.51060    1.000
    C92      C        0.11970    0.14398    0.05660    1.000
    H62      H        0.06460    0.05200    0.01950    1.000
    H63      H        0.71940    0.77750    0.65420    1.000
    H64      H        0.15310    0.12820    0.11440    1.000
    Ag3      Ag       0.79493    0.71384    0.87659    1.000
    N9       N        0.89379    0.61792    0.91830    1.000
    N10      N        0.66588    0.66160    0.88350    1.000
    N11      N        0.76860    0.69107    0.71170    1.000
    N12      N        0.87474    0.79024    0.96690    1.000
    C93      C        0.86360    0.55626    0.93440    1.000
    C94      C        0.95800    0.62000    0.87150    1.000
    H65      H        0.81970    0.55420    0.96980    1.000
    C95      C        0.89200    0.49460    0.90280    1.000
    C96      C        0.99220    0.56230    0.83980    1.000
    H66      H        0.98070    0.66330    0.85980    1.000
    C97      C        0.95790    0.49980    0.85440    1.000
    C98      C        0.85510    0.42883    0.92320    1.000
    H67      H        0.03870    0.56550    0.80830    1.000
    H68      H        0.97970    0.45960    0.83090    1.000
    C99      C        0.90430    0.37018    0.93550    1.000
    C100     C        0.77080    0.42293    0.93230    1.000
    H69      H        0.96140    0.37230    0.92730    1.000
    C101     C        0.87200    0.30894    0.95940    1.000
    C102     C        0.73820    0.36091    0.95300    1.000
    H70      H        0.73540    0.46230    0.92410    1.000
    H71      H        0.90770    0.26980    0.96930    1.000
    C103     C        0.78840    0.30313    0.96930    1.000
    H72      H        0.67990    0.35780    0.95620    1.000
    C104     C        0.75530    0.23491    0.98980    1.000
    C105     C        0.68200    0.21086    0.91520    1.000
    C106     C        0.79300    0.19715    0.06500    1.000
    C107     C        0.61020    0.18160    0.93680    1.000
    C108     C        0.68700    0.21952    0.82180    1.000
    C109     C        0.77500    0.12261    0.07490    1.000
    C110     C        0.85570    0.22774    0.14400    1.000
    C111     C        0.54420    0.16140    0.86460    1.000
    H73      H        0.60590    0.17520    0.00110    1.000
    H74      H        0.73560    0.24070    0.80640    1.000
    C112     C        0.62220    0.19790    0.74970    1.000
    C113     C        0.76480    0.09575    0.16150    1.000
    C114     C        0.77110    0.07811    0.99970    1.000
    C115     C        0.83810    0.28916    0.18560    1.000
    C116     C        0.93250    0.19601    0.18180    1.000
    C117     C        0.55050    0.16860    0.77060    1.000
    H75      H        0.49410    0.14260    0.87990    1.000
    H76      H        0.62740    0.20330    0.68560    1.000
    C118     C        0.75010    0.02726    0.17210    1.000
    H77      H        0.76820    0.12550    0.21430    1.000
    H78      H        0.77840    0.09510    0.94010    1.000
    C119     C        0.75680    0.00911    0.01050    1.000
    C120     C        0.89190    0.31581    0.26390    1.000
    H79      H        0.78780    0.31330    0.15940    1.000
    H80      H        0.94690    0.15440    0.15470    1.000
    C121     C        0.98810    0.22373    0.25800    1.000
    C122     C        0.48050    0.14850    0.69140    1.000
    C123     C        0.74670    0.98207    0.09680    1.000
    H81      H        0.74200    0.01050    0.23160    1.000
    H82      H        0.75360    0.97940    0.95760    1.000
    C124     C        0.96780    0.28345    0.30220    1.000
    H83      H        0.87680    0.35680    0.29190    1.000
    H84      H        0.04090    0.20190    0.28060    1.000
    C125     C        0.40000    0.17308    0.68740    1.000
    C126     C        0.49390    0.10790    0.61750    1.000
    C127     C        0.73570    0.90761    0.10940    1.000
    C128     C        0.02310    0.31157    0.38900    1.000
    H85      H        0.39030    0.20030    0.73890    1.000
    H86      H        0.54830    0.08920    0.61720    1.000
    C129     C        0.42630    0.09500    0.54330    1.000
    C130     C        0.77400    0.87631    0.19310    1.000
    C131     C        0.69010    0.86560    0.04010    1.000
    C132     C        0.07690    0.26917    0.45110    1.000
    C133     C        0.02000    0.37957    0.41610    1.000
    C134     C        0.34940    0.12240    0.54560    1.000
    H87      H        0.43390    0.06720    0.49150    1.000
    H88      H        0.80640    0.90430    0.24090    1.000
    H89      H        0.66270    0.88420    0.98110    1.000
    C135     C        0.68480    0.79620    0.05770    1.000
    H90      H        0.07980    0.22230    0.43450    1.000
    H91      H        0.98470    0.41100    0.37610    1.000
    C136     C        0.06760    0.40171    0.50030    1.000
    H92      H        0.30390    0.11330    0.49410    1.000
    C137     C        0.72400    0.77020    0.14310    1.000
    H93      H        0.65410    0.76680    0.01060    1.000
    C138     C        0.11970    0.35602    0.55660    1.000
    H94      H        0.06460    0.44800    0.51950    1.000
    H95      H        0.71940    0.72250    0.15420    1.000
    H96      H        0.15310    0.37180    0.61440    1.000
    Ag4      Ag       0.20507    0.21384    0.62341    1.000
    N13      N        0.10621    0.11792    0.58170    1.000
    N14      N        0.33412    0.16160    0.61650    1.000
    N15      N        0.23140    0.19107    0.78830    1.000
    N16      N        0.12526    0.29024    0.53310    1.000
    C139     C        0.13640    0.05626    0.56560    1.000
    C140     C        0.04200    0.12000    0.62850    1.000
    H97      H        0.18030    0.05420    0.53020    1.000
    C141     C        0.10800    0.99460    0.59720    1.000
    C142     C        0.00780    0.06230    0.66020    1.000
    H98      H        0.01930    0.16330    0.64020    1.000
    C143     C        0.04210    0.99980    0.64560    1.000
    C144     C        0.14490    0.92883    0.57680    1.000
    H99      H        0.96130    0.06550    0.69170    1.000
    H100     H        0.02030    0.95960    0.66910    1.000
    C145     C        0.09570    0.87018    0.56450    1.000
    C146     C        0.22920    0.92293    0.56770    1.000
    H101     H        0.03860    0.87230    0.57270    1.000
    C147     C        0.12800    0.80894    0.54060    1.000
    C148     C        0.26180    0.86091    0.54700    1.000
    H102     H        0.26460    0.96230    0.57590    1.000
    H103     H        0.09230    0.76980    0.53070    1.000
    C149     C        0.21160    0.80313    0.53070    1.000
    H104     H        0.32010    0.85780    0.54380    1.000
    C150     C        0.24470    0.73491    0.51020    1.000
    C151     C        0.31800    0.71086    0.58480    1.000
    C152     C        0.20700    0.69715    0.43500    1.000
    C153     C        0.38980    0.68160    0.56320    1.000
    C154     C        0.31300    0.71952    0.67820    1.000
    C155     C        0.22500    0.62261    0.42510    1.000
    C156     C        0.14430    0.72774    0.35600    1.000
    C157     C        0.45580    0.66140    0.63540    1.000
    H105     H        0.39410    0.67520    0.49890    1.000
    H106     H        0.26440    0.74070    0.69360    1.000
    C158     C        0.37780    0.69790    0.75030    1.000
    C159     C        0.23520    0.59575    0.33850    1.000
    C160     C        0.22890    0.57811    0.50030    1.000
    C161     C        0.16190    0.78916    0.31440    1.000
    C162     C        0.06750    0.69601    0.31820    1.000
    C163     C        0.44950    0.66860    0.72940    1.000
    H107     H        0.50590    0.64260    0.62010    1.000
    H108     H        0.37260    0.70330    0.81440    1.000
    C164     C        0.24990    0.52726    0.32790    1.000
    H109     H        0.23180    0.62550    0.28570    1.000
    H110     H        0.22160    0.59510    0.55990    1.000
    C165     C        0.24320    0.50911    0.48950    1.000
    C166     C        0.10810    0.81581    0.23610    1.000
    H111     H        0.21220    0.81330    0.34060    1.000
    H112     H        0.05310    0.65440    0.34530    1.000
    C167     C        0.01190    0.72373    0.24200    1.000
    C168     C        0.51950    0.64850    0.80860    1.000
    C169     C        0.25330    0.48207    0.40320    1.000
    H113     H        0.25800    0.51050    0.26840    1.000
    H114     H        0.24640    0.47940    0.54240    1.000
    C170     C        0.03220    0.78345    0.19780    1.000
    H115     H        0.12320    0.85680    0.20810    1.000
    H116     H        0.95910    0.70190    0.21940    1.000
    C171     C        0.60000    0.67308    0.81260    1.000
    C172     C        0.50610    0.60790    0.88250    1.000
    C173     C        0.26430    0.40761    0.39060    1.000
    C174     C        0.97690    0.81157    0.11100    1.000
    H117     H        0.60970    0.70030    0.76110    1.000
    H118     H        0.45170    0.58920    0.88280    1.000
    C175     C        0.57370    0.59500    0.95670    1.000
    C176     C        0.22600    0.37631    0.30690    1.000
    C177     C        0.30990    0.36560    0.45990    1.000
    C178     C        0.92310    0.76917    0.04890    1.000
    C179     C        0.98000    0.87957    0.08390    1.000
    C180     C        0.65060    0.62240    0.95440    1.000
    H119     H        0.56610    0.56720    0.00850    1.000
    H120     H        0.19360    0.40430    0.25910    1.000
    H121     H        0.33730    0.38420    0.51890    1.000
    C181     C        0.31520    0.29620    0.44230    1.000
    H122     H        0.92020    0.72230    0.06550    1.000
    H123     H        0.01530    0.91100    0.12390    1.000
    C182     C        0.93240    0.90171    0.99970    1.000
    H124     H        0.69610    0.61330    0.00590    1.000
    C183     C        0.27600    0.27020    0.35690    1.000
    H125     H        0.34590    0.26680    0.48940    1.000
    C184     C        0.88030    0.85602    0.94340    1.000
    H126     H        0.93540    0.94800    0.98050    1.000
    H127     H        0.28060    0.22250    0.34580    1.000
    H128     H        0.84690    0.87180    0.88560    1.000
