# CIF file generated by openbabel 3.1.0, see https://openbabel.org
data_I
_chemical_name_common 'image0'
_cell_length_a 11.6976
_cell_length_b 10.2455
_cell_length_c 15.1724
_cell_angle_alpha 90
_cell_angle_beta 91.621
_cell_angle_gamma 90
_space_group_name_H-M_alt 'P 1'
_space_group_name_Hall 'P 1'
loop_
    _symmetry_equiv_pos_as_xyz
    x,y,z
loop_
    _atom_site_label
    _atom_site_type_symbol
    _atom_site_fract_x
    _atom_site_fract_y
    _atom_site_fract_z
    _atom_site_occupancy
    Mn1      Mn       0.75606    0.42390    0.13133    1.000
    Mn2      Mn       0.73955    0.61325    0.30894    1.000
    O1       O        0.68624    0.52930    0.02062    1.000
    O2       O        0.84470    0.59570    0.95743    1.000
    O3       O        0.47750    0.70770    0.99252    1.000
    O4       O        0.34360    0.75470    0.89034    1.000
    O5       O        0.62650    0.51280    0.21479    1.000
    O6       O        0.46220    0.50740    0.13880    1.000
    O7       O        0.80780    0.44060    0.36515    1.000
    O8       O        0.80340    0.30570    0.25008    1.000
    O9       O        0.00280    0.62430    0.11486    1.000
    O10      O        0.85003    0.58460    0.19392    1.000
    O11      O        0.59556    0.84480    0.43272    1.000
    O12      O        0.60000    0.63480    0.39525    1.000
    C1       C        0.74120    0.59570    0.96550    1.000
    H1       H        0.69870    0.64940    0.92760    1.000
    C2       C        0.42320    0.78460    0.94470    1.000
    H2       H        0.44260    0.87240    0.94910    1.000
    C3       C        0.51920    0.52230    0.20590    1.000
    H3       H        0.47960    0.54310    0.25630    1.000
    C4       C        0.82220    0.33270    0.33050    1.000
    H4       H        0.84920    0.26560    0.36670    1.000
    C5       C        0.94100    0.64420    0.17660    1.000
    H5       H        0.96330    0.71060    0.21520    1.000
    C6       C        0.55860    0.72970    0.43310    1.000
    H6       H        0.49330    0.71430    0.46520    1.000
    Mn3      Mn       0.74394    0.92390    0.36867    1.000
    Mn4      Mn       0.76045    0.11325    0.19106    1.000
    O13      O        0.81376    0.02930    0.47938    1.000
    O14      O        0.65530    0.09570    0.54257    1.000
    O15      O        0.02250    0.20770    0.50748    1.000
    O16      O        0.15640    0.25470    0.60966    1.000
    O17      O        0.87350    0.01280    0.28521    1.000
    O18      O        0.03780    0.00740    0.36120    1.000
    O19      O        0.69220    0.94060    0.13485    1.000
    O20      O        0.69660    0.80570    0.24992    1.000
    O21      O        0.49720    0.12430    0.38514    1.000
    O22      O        0.64997    0.08460    0.30608    1.000
    O23      O        0.90444    0.34480    0.06728    1.000
    O24      O        0.90000    0.13480    0.10475    1.000
    C7       C        0.75880    0.09570    0.53450    1.000
    H7       H        0.80130    0.14940    0.57240    1.000
    C8       C        0.07680    0.28460    0.55530    1.000
    H8       H        0.05740    0.37240    0.55090    1.000
    C9       C        0.98080    0.02230    0.29410    1.000
    H9       H        0.02040    0.04310    0.24370    1.000
    C10      C        0.67780    0.83270    0.16950    1.000
    H10      H        0.65080    0.76560    0.13330    1.000
    C11      C        0.55900    0.14420    0.32340    1.000
    H11      H        0.53670    0.21060    0.28480    1.000
    C12      C        0.94140    0.22970    0.06690    1.000
    H12      H        0.00670    0.21430    0.03480    1.000
    Mn5      Mn       0.24394    0.57610    0.86867    1.000
    Mn6      Mn       0.26045    0.38675    0.69106    1.000
    O25      O        0.31376    0.47070    0.97938    1.000
    O26      O        0.15530    0.40430    0.04257    1.000
    O27      O        0.52250    0.29230    0.00748    1.000
    O28      O        0.65640    0.24530    0.10966    1.000
    O29      O        0.37350    0.48720    0.78521    1.000
    O30      O        0.53780    0.49260    0.86120    1.000
    O31      O        0.19220    0.55940    0.63485    1.000
    O32      O        0.19660    0.69430    0.74992    1.000
    O33      O        0.99720    0.37570    0.88514    1.000
    O34      O        0.14997    0.41540    0.80608    1.000
    O35      O        0.40444    0.15520    0.56728    1.000
    O36      O        0.40000    0.36520    0.60475    1.000
    C13      C        0.25880    0.40430    0.03450    1.000
    H13      H        0.30130    0.35060    0.07240    1.000
    C14      C        0.57680    0.21540    0.05530    1.000
    H14      H        0.55740    0.12760    0.05090    1.000
    C15      C        0.48080    0.47770    0.79410    1.000
    H15      H        0.52040    0.45690    0.74370    1.000
    C16      C        0.17780    0.66730    0.66950    1.000
    H16      H        0.15080    0.73440    0.63330    1.000
    C17      C        0.05900    0.35580    0.82340    1.000
    H17      H        0.03670    0.28940    0.78480    1.000
    C18      C        0.44140    0.27030    0.56690    1.000
    H18      H        0.50670    0.28570    0.53480    1.000
    Mn7      Mn       0.25606    0.07610    0.63133    1.000
    Mn8      Mn       0.23955    0.88675    0.80894    1.000
    O37      O        0.18624    0.97070    0.52062    1.000
    O38      O        0.34470    0.90430    0.45743    1.000
    O39      O        0.97750    0.79230    0.49252    1.000
    O40      O        0.84360    0.74530    0.39034    1.000
    O41      O        0.12650    0.98720    0.71479    1.000
    O42      O        0.96220    0.99260    0.63880    1.000
    O43      O        0.30780    0.05940    0.86515    1.000
    O44      O        0.30340    0.19430    0.75008    1.000
    O45      O        0.50280    0.87570    0.61486    1.000
    O46      O        0.35003    0.91540    0.69392    1.000
    O47      O        0.09556    0.65520    0.93272    1.000
    O48      O        0.10000    0.86520    0.89525    1.000
    C19      C        0.24120    0.90430    0.46550    1.000
    H19      H        0.19870    0.85060    0.42760    1.000
    C20      C        0.92320    0.71540    0.44470    1.000
    H20      H        0.94260    0.62760    0.44910    1.000
    C21      C        0.01920    0.97770    0.70590    1.000
    H21      H        0.97960    0.95690    0.75630    1.000
    C22      C        0.32220    0.16730    0.83050    1.000
    H22      H        0.34920    0.23440    0.86670    1.000
    C23      C        0.44100    0.85580    0.67660    1.000
    H23      H        0.46330    0.78940    0.71520    1.000
    C24      C        0.05860    0.77030    0.93310    1.000
    H24      H        0.99330    0.78570    0.96520    1.000
    Mn9      Mn       0.50000    0.50000    0.00000    1.000
    Mn10     Mn       0.00000    0.00000    0.50000    1.000
    Mn11     Mn       0.00000    0.50000    0.00000    1.000
    Mn12     Mn       0.50000    0.00000    0.50000    1.000
