# CIF file generated by openbabel 3.1.0, see https://openbabel.org
data_I
_chemical_name_common 'image0'
_cell_length_a 21.5554
_cell_length_b 23.9367
_cell_length_c 10.3787
_cell_angle_alpha 90
_cell_angle_beta 99.838
_cell_angle_gamma 90
_space_group_name_H-M_alt 'P 1'
_space_group_name_Hall 'P 1'
loop_
    _symmetry_equiv_pos_as_xyz
    x,y,z
loop_
    _atom_site_label
    _atom_site_type_symbol
    _atom_site_fract_x
    _atom_site_fract_y
    _atom_site_fract_z
    _atom_site_occupancy
    U1       U        0.50983    0.36662    0.79295    1.000
    P1       P        0.39800    0.37160    0.46940    1.000
    P2       P        0.30710    0.11714    0.41190    1.000
    P3       P        0.36500    0.35076    0.92750    1.000
    P4       P        0.32600    0.08541    0.92930    1.000
    O1       O        0.41790    0.39030    0.34220    1.000
    O2       O        0.33880    0.40730    0.48280    1.000
    O3       O        0.44830    0.37680    0.58810    1.000
    O4       O        0.32290    0.09240    0.54710    1.000
    O5       O        0.34400    0.09050    0.31290    1.000
    O6       O        0.23620    0.11600    0.35720    1.000
    O7       O        0.39130    0.37020    0.06440    1.000
    O8       O        0.29820    0.37730    0.88670    1.000
    O9       O        0.40260    0.36450    0.81950    1.000
    O10      O        0.36120    0.06160    0.05750    1.000
    O11      O        0.25430    0.07800    0.91750    1.000
    O12      O        0.34780    0.06040    0.81110    1.000
    O13      O        0.50470    0.43860    0.82710    1.000
    C1       C        0.37320    0.29980    0.45310    1.000
    C2       C        0.41080    0.25660    0.50520    1.000
    H1       H        0.45170    0.26440    0.55210    1.000
    C3       C        0.39100    0.20280    0.49110    1.000
    H2       H        0.41870    0.17370    0.52650    1.000
    C4       C        0.33180    0.18920    0.42720    1.000
    C5       C        0.29280    0.23330    0.37220    1.000
    H3       H        0.25210    0.22520    0.32500    1.000
    C6       C        0.31220    0.28730    0.38540    1.000
    H4       H        0.28490    0.31650    0.34910    1.000
    C7       C        0.35440    0.27610    0.92870    1.000
    C8       C        0.35770    0.24500    0.81800    1.000
    H5       H        0.36690    0.26310    0.74190    1.000
    C9       C        0.34760    0.18690    0.81620    1.000
    H6       H        0.34780    0.16610    0.73840    1.000
    C10      C        0.33710    0.16000    0.93060    1.000
    C11      C        0.33730    0.19050    0.04320    1.000
    H7       H        0.33300    0.17210    0.12240    1.000
    C12      C        0.34370    0.24780    0.04060    1.000
    H8       H        0.34080    0.26860    0.11720    1.000
    U2       U        0.00983    0.86662    0.79295    1.000
    P5       P        0.89800    0.87160    0.46940    1.000
    P6       P        0.80710    0.61714    0.41190    1.000
    P7       P        0.86500    0.85076    0.92750    1.000
    P8       P        0.82600    0.58541    0.92930    1.000
    O14      O        0.91790    0.89030    0.34220    1.000
    O15      O        0.83880    0.90730    0.48280    1.000
    O16      O        0.94830    0.87680    0.58810    1.000
    O17      O        0.82290    0.59240    0.54710    1.000
    O18      O        0.84400    0.59050    0.31290    1.000
    O19      O        0.73620    0.61600    0.35720    1.000
    O20      O        0.89130    0.87020    0.06440    1.000
    O21      O        0.79820    0.87730    0.88670    1.000
    O22      O        0.90260    0.86450    0.81950    1.000
    O23      O        0.86120    0.56160    0.05750    1.000
    O24      O        0.75430    0.57800    0.91750    1.000
    O25      O        0.84780    0.56040    0.81110    1.000
    O26      O        0.00470    0.93860    0.82710    1.000
    C13      C        0.87320    0.79980    0.45310    1.000
    C14      C        0.91080    0.75660    0.50520    1.000
    H9       H        0.95170    0.76440    0.55210    1.000
    C15      C        0.89100    0.70280    0.49110    1.000
    H10      H        0.91870    0.67370    0.52650    1.000
    C16      C        0.83180    0.68920    0.42720    1.000
    C17      C        0.79280    0.73330    0.37220    1.000
    H11      H        0.75210    0.72520    0.32500    1.000
    C18      C        0.81220    0.78730    0.38540    1.000
    H12      H        0.78490    0.81650    0.34910    1.000
    C19      C        0.85440    0.77610    0.92870    1.000
    C20      C        0.85770    0.74500    0.81800    1.000
    H13      H        0.86690    0.76310    0.74190    1.000
    C21      C        0.84760    0.68690    0.81620    1.000
    H14      H        0.84780    0.66610    0.73840    1.000
    C22      C        0.83710    0.66000    0.93060    1.000
    C23      C        0.83730    0.69050    0.04320    1.000
    H15      H        0.83300    0.67210    0.12240    1.000
    C24      C        0.84370    0.74780    0.04060    1.000
    H16      H        0.84080    0.76860    0.11720    1.000
    U3       U        0.49017    0.36662    0.20705    1.000
    P9       P        0.60200    0.37160    0.53060    1.000
    P10      P        0.69290    0.11714    0.58810    1.000
    P11      P        0.63500    0.35076    0.07250    1.000
    P12      P        0.67400    0.08541    0.07070    1.000
    O27      O        0.58210    0.39030    0.65780    1.000
    O28      O        0.66120    0.40730    0.51720    1.000
    O29      O        0.55170    0.37680    0.41190    1.000
    O30      O        0.67710    0.09240    0.45290    1.000
    O31      O        0.65600    0.09050    0.68710    1.000
    O32      O        0.76380    0.11600    0.64280    1.000
    O33      O        0.60870    0.37020    0.93560    1.000
    O34      O        0.70180    0.37730    0.11330    1.000
    O35      O        0.59740    0.36450    0.18050    1.000
    O36      O        0.63880    0.06160    0.94250    1.000
    O37      O        0.74570    0.07800    0.08250    1.000
    O38      O        0.65220    0.06040    0.18890    1.000
    O39      O        0.49530    0.43860    0.17290    1.000
    C25      C        0.62680    0.29980    0.54690    1.000
    C26      C        0.58920    0.25660    0.49480    1.000
    H17      H        0.54830    0.26440    0.44790    1.000
    C27      C        0.60900    0.20280    0.50890    1.000
    H18      H        0.58130    0.17370    0.47350    1.000
    C28      C        0.66820    0.18920    0.57280    1.000
    C29      C        0.70720    0.23330    0.62780    1.000
    H19      H        0.74790    0.22520    0.67500    1.000
    C30      C        0.68780    0.28730    0.61460    1.000
    H20      H        0.71510    0.31650    0.65090    1.000
    C31      C        0.64560    0.27610    0.07130    1.000
    C32      C        0.64230    0.24500    0.18200    1.000
    H21      H        0.63310    0.26310    0.25810    1.000
    C33      C        0.65240    0.18690    0.18380    1.000
    H22      H        0.65220    0.16610    0.26160    1.000
    C34      C        0.66290    0.16000    0.06940    1.000
    C35      C        0.66270    0.19050    0.95680    1.000
    H23      H        0.66700    0.17210    0.87760    1.000
    C36      C        0.65630    0.24780    0.95940    1.000
    H24      H        0.65920    0.26860    0.88280    1.000
    U4       U        0.99017    0.86662    0.20705    1.000
    P13      P        0.10200    0.87160    0.53060    1.000
    P14      P        0.19290    0.61714    0.58810    1.000
    P15      P        0.13500    0.85076    0.07250    1.000
    P16      P        0.17400    0.58541    0.07070    1.000
    O40      O        0.08210    0.89030    0.65780    1.000
    O41      O        0.16120    0.90730    0.51720    1.000
    O42      O        0.05170    0.87680    0.41190    1.000
    O43      O        0.17710    0.59240    0.45290    1.000
    O44      O        0.15600    0.59050    0.68710    1.000
    O45      O        0.26380    0.61600    0.64280    1.000
    O46      O        0.10870    0.87020    0.93560    1.000
    O47      O        0.20180    0.87730    0.11330    1.000
    O48      O        0.09740    0.86450    0.18050    1.000
    O49      O        0.13880    0.56160    0.94250    1.000
    O50      O        0.24570    0.57800    0.08250    1.000
    O51      O        0.15220    0.56040    0.18890    1.000
    O52      O        0.99530    0.93860    0.17290    1.000
    C37      C        0.12680    0.79980    0.54690    1.000
    C38      C        0.08920    0.75660    0.49480    1.000
    H25      H        0.04830    0.76440    0.44790    1.000
    C39      C        0.10900    0.70280    0.50890    1.000
    H26      H        0.08130    0.67370    0.47350    1.000
    C40      C        0.16820    0.68920    0.57280    1.000
    C41      C        0.20720    0.73330    0.62780    1.000
    H27      H        0.24790    0.72520    0.67500    1.000
    C42      C        0.18780    0.78730    0.61460    1.000
    H28      H        0.21510    0.81650    0.65090    1.000
    C43      C        0.14560    0.77610    0.07130    1.000
    C44      C        0.14230    0.74500    0.18200    1.000
    H29      H        0.13310    0.76310    0.25810    1.000
    C45      C        0.15240    0.68690    0.18380    1.000
    H30      H        0.15220    0.66610    0.26160    1.000
    C46      C        0.16290    0.66000    0.06940    1.000
    C47      C        0.16270    0.69050    0.95680    1.000
    H31      H        0.16700    0.67210    0.87760    1.000
    C48      C        0.15630    0.74780    0.95940    1.000
    H32      H        0.15920    0.76860    0.88280    1.000
    U5       U        0.49017    0.63338    0.20705    1.000
    P17      P        0.60200    0.62840    0.53060    1.000
    P18      P        0.69290    0.88286    0.58810    1.000
    P19      P        0.63500    0.64924    0.07250    1.000
    P20      P        0.67400    0.91459    0.07070    1.000
    O53      O        0.58210    0.60970    0.65780    1.000
    O54      O        0.66120    0.59270    0.51720    1.000
    O55      O        0.55170    0.62320    0.41190    1.000
    O56      O        0.67710    0.90760    0.45290    1.000
    O57      O        0.65600    0.90950    0.68710    1.000
    O58      O        0.76380    0.88400    0.64280    1.000
    O59      O        0.60870    0.62980    0.93560    1.000
    O60      O        0.70180    0.62270    0.11330    1.000
    O61      O        0.59740    0.63550    0.18050    1.000
    O62      O        0.63880    0.93840    0.94250    1.000
    O63      O        0.74570    0.92200    0.08250    1.000
    O64      O        0.65220    0.93960    0.18890    1.000
    O65      O        0.49530    0.56140    0.17290    1.000
    C49      C        0.62680    0.70020    0.54690    1.000
    C50      C        0.58920    0.74340    0.49480    1.000
    H33      H        0.54830    0.73560    0.44790    1.000
    C51      C        0.60900    0.79720    0.50890    1.000
    H34      H        0.58130    0.82630    0.47350    1.000
    C52      C        0.66820    0.81080    0.57280    1.000
    C53      C        0.70720    0.76670    0.62780    1.000
    H35      H        0.74790    0.77480    0.67500    1.000
    C54      C        0.68780    0.71270    0.61460    1.000
    H36      H        0.71510    0.68350    0.65090    1.000
    C55      C        0.64560    0.72390    0.07130    1.000
    C56      C        0.64230    0.75500    0.18200    1.000
    H37      H        0.63310    0.73690    0.25810    1.000
    C57      C        0.65240    0.81310    0.18380    1.000
    H38      H        0.65220    0.83390    0.26160    1.000
    C58      C        0.66290    0.84000    0.06940    1.000
    C59      C        0.66270    0.80950    0.95680    1.000
    H39      H        0.66700    0.82790    0.87760    1.000
    C60      C        0.65630    0.75220    0.95940    1.000
    H40      H        0.65920    0.73140    0.88280    1.000
    U6       U        0.99017    0.13338    0.20705    1.000
    P21      P        0.10200    0.12840    0.53060    1.000
    P22      P        0.19290    0.38286    0.58810    1.000
    P23      P        0.13500    0.14924    0.07250    1.000
    P24      P        0.17400    0.41459    0.07070    1.000
    O66      O        0.08210    0.10970    0.65780    1.000
    O67      O        0.16120    0.09270    0.51720    1.000
    O68      O        0.05170    0.12320    0.41190    1.000
    O69      O        0.17710    0.40760    0.45290    1.000
    O70      O        0.15600    0.40950    0.68710    1.000
    O71      O        0.26380    0.38400    0.64280    1.000
    O72      O        0.10870    0.12980    0.93560    1.000
    O73      O        0.20180    0.12270    0.11330    1.000
    O74      O        0.09740    0.13550    0.18050    1.000
    O75      O        0.13880    0.43840    0.94250    1.000
    O76      O        0.24570    0.42200    0.08250    1.000
    O77      O        0.15220    0.43960    0.18890    1.000
    O78      O        0.99530    0.06140    0.17290    1.000
    C61      C        0.12680    0.20020    0.54690    1.000
    C62      C        0.08920    0.24340    0.49480    1.000
    H41      H        0.04830    0.23560    0.44790    1.000
    C63      C        0.10900    0.29720    0.50890    1.000
    H42      H        0.08130    0.32630    0.47350    1.000
    C64      C        0.16820    0.31080    0.57280    1.000
    C65      C        0.20720    0.26670    0.62780    1.000
    H43      H        0.24790    0.27480    0.67500    1.000
    C66      C        0.18780    0.21270    0.61460    1.000
    H44      H        0.21510    0.18350    0.65090    1.000
    C67      C        0.14560    0.22390    0.07130    1.000
    C68      C        0.14230    0.25500    0.18200    1.000
    H45      H        0.13310    0.23690    0.25810    1.000
    C69      C        0.15240    0.31310    0.18380    1.000
    H46      H        0.15220    0.33390    0.26160    1.000
    C70      C        0.16290    0.34000    0.06940    1.000
    C71      C        0.16270    0.30950    0.95680    1.000
    H47      H        0.16700    0.32790    0.87760    1.000
    C72      C        0.15630    0.25220    0.95940    1.000
    H48      H        0.15920    0.23140    0.88280    1.000
    U7       U        0.50983    0.63338    0.79295    1.000
    P25      P        0.39800    0.62840    0.46940    1.000
    P26      P        0.30710    0.88286    0.41190    1.000
    P27      P        0.36500    0.64924    0.92750    1.000
    P28      P        0.32600    0.91459    0.92930    1.000
    O79      O        0.41790    0.60970    0.34220    1.000
    O80      O        0.33880    0.59270    0.48280    1.000
    O81      O        0.44830    0.62320    0.58810    1.000
    O82      O        0.32290    0.90760    0.54710    1.000
    O83      O        0.34400    0.90950    0.31290    1.000
    O84      O        0.23620    0.88400    0.35720    1.000
    O85      O        0.39130    0.62980    0.06440    1.000
    O86      O        0.29820    0.62270    0.88670    1.000
    O87      O        0.40260    0.63550    0.81950    1.000
    O88      O        0.36120    0.93840    0.05750    1.000
    O89      O        0.25430    0.92200    0.91750    1.000
    O90      O        0.34780    0.93960    0.81110    1.000
    O91      O        0.50470    0.56140    0.82710    1.000
    C73      C        0.37320    0.70020    0.45310    1.000
    C74      C        0.41080    0.74340    0.50520    1.000
    H49      H        0.45170    0.73560    0.55210    1.000
    C75      C        0.39100    0.79720    0.49110    1.000
    H50      H        0.41870    0.82630    0.52650    1.000
    C76      C        0.33180    0.81080    0.42720    1.000
    C77      C        0.29280    0.76670    0.37220    1.000
    H51      H        0.25210    0.77480    0.32500    1.000
    C78      C        0.31220    0.71270    0.38540    1.000
    H52      H        0.28490    0.68350    0.34910    1.000
    C79      C        0.35440    0.72390    0.92870    1.000
    C80      C        0.35770    0.75500    0.81800    1.000
    H53      H        0.36690    0.73690    0.74190    1.000
    C81      C        0.34760    0.81310    0.81620    1.000
    H54      H        0.34780    0.83390    0.73840    1.000
    C82      C        0.33710    0.84000    0.93060    1.000
    C83      C        0.33730    0.80950    0.04320    1.000
    H55      H        0.33300    0.82790    0.12240    1.000
    C84      C        0.34370    0.75220    0.04060    1.000
    H56      H        0.34080    0.73140    0.11720    1.000
    U8       U        0.00983    0.13338    0.79295    1.000
    P29      P        0.89800    0.12840    0.46940    1.000
    P30      P        0.80710    0.38286    0.41190    1.000
    P31      P        0.86500    0.14924    0.92750    1.000
    P32      P        0.82600    0.41459    0.92930    1.000
    O92      O        0.91790    0.10970    0.34220    1.000
    O93      O        0.83880    0.09270    0.48280    1.000
    O94      O        0.94830    0.12320    0.58810    1.000
    O95      O        0.82290    0.40760    0.54710    1.000
    O96      O        0.84400    0.40950    0.31290    1.000
    O97      O        0.73620    0.38400    0.35720    1.000
    O98      O        0.89130    0.12980    0.06440    1.000
    O99      O        0.79820    0.12270    0.88670    1.000
    O100     O        0.90260    0.13550    0.81950    1.000
    O101     O        0.86120    0.43840    0.05750    1.000
    O102     O        0.75430    0.42200    0.91750    1.000
    O103     O        0.84780    0.43960    0.81110    1.000
    O104     O        0.00470    0.06140    0.82710    1.000
    C85      C        0.87320    0.20020    0.45310    1.000
    C86      C        0.91080    0.24340    0.50520    1.000
    H57      H        0.95170    0.23560    0.55210    1.000
    C87      C        0.89100    0.29720    0.49110    1.000
    H58      H        0.91870    0.32630    0.52650    1.000
    C88      C        0.83180    0.31080    0.42720    1.000
    C89      C        0.79280    0.26670    0.37220    1.000
    H59      H        0.75210    0.27480    0.32500    1.000
    C90      C        0.81220    0.21270    0.38540    1.000
    H60      H        0.78490    0.18350    0.34910    1.000
    C91      C        0.85440    0.22390    0.92870    1.000
    C92      C        0.85770    0.25500    0.81800    1.000
    H61      H        0.86690    0.23690    0.74190    1.000
    C93      C        0.84760    0.31310    0.81620    1.000
    H62      H        0.84780    0.33390    0.73840    1.000
    C94      C        0.83710    0.34000    0.93060    1.000
    C95      C        0.83730    0.30950    0.04320    1.000
    H63      H        0.83300    0.32790    0.12240    1.000
    C96      C        0.84370    0.25220    0.04060    1.000
    H64      H        0.84080    0.23140    0.11720    1.000
    U9       U        0.32762    0.00000    0.63185    1.000
    U10      U        0.34215    0.00000    0.22100    1.000
    F1       F        0.29540    0.00000    0.40870    1.000
    O105     O        0.24700    0.00000    0.64630    1.000
    U11      U        0.82762    0.50000    0.63185    1.000
    U12      U        0.84215    0.50000    0.22100    1.000
    F2       F        0.79540    0.50000    0.40870    1.000
    O106     O        0.74700    0.50000    0.64630    1.000
    U13      U        0.67238    0.00000    0.36815    1.000
    U14      U        0.65785    0.00000    0.77900    1.000
    F3       F        0.70460    0.00000    0.59130    1.000
    O107     O        0.75300    0.00000    0.35370    1.000
    U15      U        0.17238    0.50000    0.36815    1.000
    U16      U        0.15785    0.50000    0.77900    1.000
    F4       F        0.20460    0.50000    0.59130    1.000
    O108     O        0.25300    0.50000    0.35370    1.000
    Cs1      Cs       0.36121    0.50000    0.21283    1.000
    Cs2      Cs       0.86121    0.00000    0.21283    1.000
    Cs3      Cs       0.63879    0.50000    0.78717    1.000
    Cs4      Cs       0.13879    0.00000    0.78717    1.000
    F5       F        0.50000    0.33350    0.00000    1.000
    F6       F        0.00000    0.83350    0.00000    1.000
    F7       F        0.50000    0.66650    0.00000    1.000
    F8       F        0.00000    0.16650    0.00000    1.000
