# CIF file generated by openbabel 3.1.0, see https://openbabel.org
data_I
_chemical_name_common 'image0'
_cell_length_a 10.0583
_cell_length_b 18.085
_cell_length_c 15.6192
_cell_angle_alpha 90
_cell_angle_beta 90
_cell_angle_gamma 90
_space_group_name_H-M_alt 'P 1'
_space_group_name_Hall 'P 1'
loop_
    _symmetry_equiv_pos_as_xyz
    x,y,z
loop_
    _atom_site_label
    _atom_site_type_symbol
    _atom_site_fract_x
    _atom_site_fract_y
    _atom_site_fract_z
    _atom_site_occupancy
    P1       P        0.14720    0.32870    0.31692    1.000
    P2       P        0.38130    0.31518    0.55893    1.000
    P3       P        0.14030    0.57538    0.48647    1.000
    Al1      Al       0.18160    0.21658    0.46414    1.000
    Al2      Al       0.33440    0.32547    0.14991    1.000
    Al3      Al       0.15000    0.40296    0.49510    1.000
    O1       O        0.00020    0.33620    0.29110    1.000
    O2       O        0.17810    0.25120    0.34970    1.000
    O3       O        0.18270    0.38870    0.38280    1.000
    O4       O        0.23380    0.34660    0.23890    1.000
    O5       O        0.36200    0.27240    0.64290    1.000
    O6       O        0.34300    0.26660    0.48290    1.000
    O7       O        0.29240    0.38440    0.56230    1.000
    O8       O        0.52490    0.33980    0.54950    1.000
    O9       O        0.37410    0.09980    0.58050    1.000
    O10      O        0.27930    0.13160    0.43410    1.000
    O11      O        0.20690    0.50030    0.48210    1.000
    O12      O        0.00070    0.42910    0.55090    1.000
    O13      O        0.09330    0.30270    0.49900    1.000
    O14      O        0.18140    0.18720    0.58050    1.000
    H1       H        0.04690    0.29710    0.54840    1.000
    P4       P        0.35280    0.67130    0.81692    1.000
    P5       P        0.11870    0.68482    0.05893    1.000
    P6       P        0.35970    0.42462    0.98647    1.000
    Al4      Al       0.31840    0.78342    0.96414    1.000
    Al5      Al       0.16560    0.67453    0.64991    1.000
    Al6      Al       0.35000    0.59704    0.99510    1.000
    O15      O        0.49980    0.66380    0.79110    1.000
    O16      O        0.32190    0.74880    0.84970    1.000
    O17      O        0.31730    0.61130    0.88280    1.000
    O18      O        0.26620    0.65340    0.73890    1.000
    O19      O        0.13800    0.72760    0.14290    1.000
    O20      O        0.15700    0.73340    0.98290    1.000
    O21      O        0.20760    0.61560    0.06230    1.000
    O22      O        0.97510    0.66020    0.04950    1.000
    O23      O        0.12590    0.90020    0.08050    1.000
    O24      O        0.22070    0.86840    0.93410    1.000
    O25      O        0.29310    0.49970    0.98210    1.000
    O26      O        0.49930    0.57090    0.05090    1.000
    O27      O        0.40670    0.69730    0.99900    1.000
    O28      O        0.31860    0.81280    0.08050    1.000
    H2       H        0.45310    0.70290    0.04840    1.000
    P7       P        0.85280    0.82870    0.18308    1.000
    P8       P        0.61870    0.81518    0.94107    1.000
    P9       P        0.85970    0.07538    0.01353    1.000
    Al7      Al       0.81840    0.71658    0.03586    1.000
    Al8      Al       0.66560    0.82547    0.35009    1.000
    Al9      Al       0.85000    0.90296    0.00490    1.000
    O29      O        0.99980    0.83620    0.20890    1.000
    O30      O        0.82190    0.75120    0.15030    1.000
    O31      O        0.81730    0.88870    0.11720    1.000
    O32      O        0.76620    0.84660    0.26110    1.000
    O33      O        0.63800    0.77240    0.85710    1.000
    O34      O        0.65700    0.76660    0.01710    1.000
    O35      O        0.70760    0.88440    0.93770    1.000
    O36      O        0.47510    0.83980    0.95050    1.000
    O37      O        0.62590    0.59980    0.91950    1.000
    O38      O        0.72070    0.63160    0.06590    1.000
    O39      O        0.79310    0.00030    0.01790    1.000
    O40      O        0.99930    0.92910    0.94910    1.000
    O41      O        0.90670    0.80270    0.00100    1.000
    O42      O        0.81860    0.68720    0.91950    1.000
    H3       H        0.95310    0.79710    0.95160    1.000
    P10      P        0.64720    0.17130    0.68308    1.000
    P11      P        0.88130    0.18482    0.44107    1.000
    P12      P        0.64030    0.92462    0.51353    1.000
    Al10     Al       0.68160    0.28342    0.53586    1.000
    Al11     Al       0.83440    0.17453    0.85009    1.000
    Al12     Al       0.65000    0.09704    0.50490    1.000
    O43      O        0.50020    0.16380    0.70890    1.000
    O44      O        0.67810    0.24880    0.65030    1.000
    O45      O        0.68270    0.11130    0.61720    1.000
    O46      O        0.73380    0.15340    0.76110    1.000
    O47      O        0.86200    0.22760    0.35710    1.000
    O48      O        0.84300    0.23340    0.51710    1.000
    O49      O        0.79240    0.11560    0.43770    1.000
    O50      O        0.02490    0.16020    0.45050    1.000
    O51      O        0.87410    0.40020    0.41950    1.000
    O52      O        0.77930    0.36840    0.56590    1.000
    O53      O        0.70690    0.99970    0.51790    1.000
    O54      O        0.50070    0.07090    0.44910    1.000
    O55      O        0.59330    0.19730    0.50100    1.000
    O56      O        0.68140    0.31280    0.41950    1.000
    H4       H        0.54690    0.20290    0.45160    1.000
    P13      P        0.85280    0.67130    0.68308    1.000
    P14      P        0.61870    0.68482    0.44107    1.000
    P15      P        0.85970    0.42462    0.51353    1.000
    Al13     Al       0.81840    0.78342    0.53586    1.000
    Al14     Al       0.66560    0.67453    0.85009    1.000
    Al15     Al       0.85000    0.59704    0.50490    1.000
    O57      O        0.99980    0.66380    0.70890    1.000
    O58      O        0.82190    0.74880    0.65030    1.000
    O59      O        0.81730    0.61130    0.61720    1.000
    O60      O        0.76620    0.65340    0.76110    1.000
    O61      O        0.63800    0.72760    0.35710    1.000
    O62      O        0.65700    0.73340    0.51710    1.000
    O63      O        0.70760    0.61560    0.43770    1.000
    O64      O        0.47510    0.66020    0.45050    1.000
    O65      O        0.62590    0.90020    0.41950    1.000
    O66      O        0.72070    0.86840    0.56590    1.000
    O67      O        0.79310    0.49970    0.51790    1.000
    O68      O        0.99930    0.57090    0.44910    1.000
    O69      O        0.90670    0.69730    0.50100    1.000
    O70      O        0.81860    0.81280    0.41950    1.000
    H5       H        0.95310    0.70290    0.45160    1.000
    P16      P        0.64720    0.32870    0.18308    1.000
    P17      P        0.88130    0.31518    0.94107    1.000
    P18      P        0.64030    0.57538    0.01353    1.000
    Al16     Al       0.68160    0.21658    0.03586    1.000
    Al17     Al       0.83440    0.32547    0.35009    1.000
    Al18     Al       0.65000    0.40296    0.00490    1.000
    O71      O        0.50020    0.33620    0.20890    1.000
    O72      O        0.67810    0.25120    0.15030    1.000
    O73      O        0.68270    0.38870    0.11720    1.000
    O74      O        0.73380    0.34660    0.26110    1.000
    O75      O        0.86200    0.27240    0.85710    1.000
    O76      O        0.84300    0.26660    0.01710    1.000
    O77      O        0.79240    0.38440    0.93770    1.000
    O78      O        0.02490    0.33980    0.95050    1.000
    O79      O        0.87410    0.09980    0.91950    1.000
    O80      O        0.77930    0.13160    0.06590    1.000
    O81      O        0.70690    0.50030    0.01790    1.000
    O82      O        0.50070    0.42910    0.94910    1.000
    O83      O        0.59330    0.30270    0.00100    1.000
    O84      O        0.68140    0.18720    0.91950    1.000
    H6       H        0.54690    0.29710    0.95160    1.000
    P19      P        0.14720    0.17130    0.81692    1.000
    P20      P        0.38130    0.18482    0.05893    1.000
    P21      P        0.14030    0.92462    0.98647    1.000
    Al19     Al       0.18160    0.28342    0.96414    1.000
    Al20     Al       0.33440    0.17453    0.64991    1.000
    Al21     Al       0.15000    0.09704    0.99510    1.000
    O85      O        0.00020    0.16380    0.79110    1.000
    O86      O        0.17810    0.24880    0.84970    1.000
    O87      O        0.18270    0.11130    0.88280    1.000
    O88      O        0.23380    0.15340    0.73890    1.000
    O89      O        0.36200    0.22760    0.14290    1.000
    O90      O        0.34300    0.23340    0.98290    1.000
    O91      O        0.29240    0.11560    0.06230    1.000
    O92      O        0.52490    0.16020    0.04950    1.000
    O93      O        0.37410    0.40020    0.08050    1.000
    O94      O        0.27930    0.36840    0.93410    1.000
    O95      O        0.20690    0.99970    0.98210    1.000
    O96      O        0.00070    0.07090    0.05090    1.000
    O97      O        0.09330    0.19730    0.99900    1.000
    O98      O        0.18140    0.31280    0.08050    1.000
    H7       H        0.04690    0.20290    0.04840    1.000
    P22      P        0.35280    0.82870    0.31692    1.000
    P23      P        0.11870    0.81518    0.55893    1.000
    P24      P        0.35970    0.07538    0.48647    1.000
    Al22     Al       0.31840    0.71658    0.46414    1.000
    Al23     Al       0.16560    0.82547    0.14991    1.000
    Al24     Al       0.35000    0.90296    0.49510    1.000
    O99      O        0.49980    0.83620    0.29110    1.000
    O100     O        0.32190    0.75120    0.34970    1.000
    O101     O        0.31730    0.88870    0.38280    1.000
    O102     O        0.26620    0.84660    0.23890    1.000
    O103     O        0.13800    0.77240    0.64290    1.000
    O104     O        0.15700    0.76660    0.48290    1.000
    O105     O        0.20760    0.88440    0.56230    1.000
    O106     O        0.97510    0.83980    0.54950    1.000
    O107     O        0.12590    0.59980    0.58050    1.000
    O108     O        0.22070    0.63160    0.43410    1.000
    O109     O        0.29310    0.00030    0.48210    1.000
    O110     O        0.49930    0.92910    0.55090    1.000
    O111     O        0.40670    0.80270    0.49900    1.000
    O112     O        0.31860    0.68720    0.58050    1.000
    H8       H        0.45310    0.79710    0.54840    1.000
