# CIF file generated by openbabel 3.1.0, see https://openbabel.org
data_I
_chemical_name_common 'image0'
_cell_length_a 35.755
_cell_length_b 35.755
_cell_length_c 35.755
_cell_angle_alpha 90
_cell_angle_beta 90
_cell_angle_gamma 90
_space_group_name_H-M_alt 'P 1'
_space_group_name_Hall 'P 1'
loop_
    _symmetry_equiv_pos_as_xyz
    x,y,z
loop_
    _atom_site_label
    _atom_site_type_symbol
    _atom_site_fract_x
    _atom_site_fract_y
    _atom_site_fract_z
    _atom_site_occupancy
    O1       O        0.24390    0.70810    0.82596    1.000
    C1       C        0.31360    0.65870    0.97780    1.000
    C2       C        0.34490    0.67410    0.99500    1.000
    C3       C        0.35840    0.65870    0.02810    1.000
    C4       C        0.34060    0.62800    0.04392    1.000
    C5       C        0.30930    0.61267    0.02670    1.000
    C6       C        0.29580    0.62800    0.99370    1.000
    C7       C        0.36830    0.61530    0.08230    1.000
    C8       C        0.38300    0.71290    0.07060    1.000
    C9       C        0.36080    0.58530    0.10340    1.000
    C10      C        0.43190    0.66670    0.02930    1.000
    C11      C        0.39430    0.67220    0.05270    1.000
    C12      C        0.44020    0.62870    0.01490    1.000
    C13      C        0.35000    0.71630    0.09260    1.000
    O2       O        0.30340    0.72230    0.81240    1.000
    C14      C        0.28770    0.69781    0.87098    1.000
    C15      C        0.26061    0.68400    0.89530    1.000
    C16      C        0.27090    0.67063    0.93030    1.000
    C17      C        0.30830    0.67100    0.94099    1.000
    C18      C        0.33534    0.68470    0.91670    1.000
    C19      C        0.32500    0.69820    0.88170    1.000
    C20      C        0.27670    0.71220    0.83180    1.000
    Zn1      Zn       0.23602    0.80392    0.75177    1.000
    O3       O        0.25610    0.29190    0.32596    1.000
    C21      C        0.18640    0.34130    0.47780    1.000
    C22      C        0.15510    0.32590    0.49500    1.000
    C23      C        0.14160    0.34130    0.52810    1.000
    C24      C        0.15940    0.37200    0.54392    1.000
    C25      C        0.19070    0.38733    0.52670    1.000
    C26      C        0.20420    0.37200    0.49370    1.000
    C27      C        0.13170    0.38470    0.58230    1.000
    C28      C        0.11700    0.28710    0.57060    1.000
    C29      C        0.13920    0.41470    0.60340    1.000
    C30      C        0.06810    0.33330    0.52930    1.000
    C31      C        0.10570    0.32780    0.55270    1.000
    C32      C        0.05980    0.37130    0.51490    1.000
    C33      C        0.15000    0.28370    0.59260    1.000
    O4       O        0.19660    0.27770    0.31240    1.000
    C34      C        0.21230    0.30219    0.37098    1.000
    C35      C        0.23939    0.31600    0.39530    1.000
    C36      C        0.22910    0.32937    0.43030    1.000
    C37      C        0.19170    0.32900    0.44099    1.000
    C38      C        0.16466    0.31530    0.41670    1.000
    C39      C        0.17500    0.30180    0.38170    1.000
    C40      C        0.22330    0.28780    0.33180    1.000
    Zn2      Zn       0.26398    0.19608    0.25177    1.000
    O5       O        0.75610    0.20810    0.67404    1.000
    C41      C        0.68640    0.15870    0.52220    1.000
    C42      C        0.65510    0.17410    0.50500    1.000
    C43      C        0.64160    0.15870    0.47190    1.000
    C44      C        0.65940    0.12800    0.45608    1.000
    C45      C        0.69070    0.11267    0.47330    1.000
    C46      C        0.70420    0.12800    0.50630    1.000
    C47      C        0.63170    0.11530    0.41770    1.000
    C48      C        0.61700    0.21290    0.42940    1.000
    C49      C        0.63920    0.08530    0.39660    1.000
    C50      C        0.56810    0.16670    0.47070    1.000
    C51      C        0.60570    0.17220    0.44730    1.000
    C52      C        0.55980    0.12870    0.48510    1.000
    C53      C        0.65000    0.21630    0.40740    1.000
    O6       O        0.69660    0.22230    0.68760    1.000
    C54      C        0.71230    0.19781    0.62902    1.000
    C55      C        0.73939    0.18400    0.60470    1.000
    C56      C        0.72910    0.17063    0.56970    1.000
    C57      C        0.69170    0.17100    0.55901    1.000
    C58      C        0.66466    0.18470    0.58330    1.000
    C59      C        0.67500    0.19820    0.61830    1.000
    C60      C        0.72330    0.21220    0.66820    1.000
    Zn3      Zn       0.76398    0.30392    0.74823    1.000
    O7       O        0.74390    0.79190    0.17404    1.000
    C61      C        0.81360    0.84130    0.02220    1.000
    C62      C        0.84490    0.82590    0.00500    1.000
    C63      C        0.85840    0.84130    0.97190    1.000
    C64      C        0.84060    0.87200    0.95608    1.000
    C65      C        0.80930    0.88733    0.97330    1.000
    C66      C        0.79580    0.87200    0.00630    1.000
    C67      C        0.86830    0.88470    0.91770    1.000
    C68      C        0.88300    0.78710    0.92940    1.000
    C69      C        0.86080    0.91470    0.89660    1.000
    C70      C        0.93190    0.83330    0.97070    1.000
    C71      C        0.89430    0.82780    0.94730    1.000
    C72      C        0.94020    0.87130    0.98510    1.000
    C73      C        0.85000    0.78370    0.90740    1.000
    O8       O        0.80340    0.77770    0.18760    1.000
    C74      C        0.78770    0.80219    0.12902    1.000
    C75      C        0.76061    0.81600    0.10470    1.000
    C76      C        0.77090    0.82937    0.06970    1.000
    C77      C        0.80830    0.82900    0.05901    1.000
    C78      C        0.83534    0.81530    0.08330    1.000
    C79      C        0.82500    0.80180    0.11830    1.000
    C80      C        0.77670    0.78780    0.16820    1.000
    Zn4      Zn       0.73602    0.69608    0.24823    1.000
    O9       O        0.82596    0.24390    0.70810    1.000
    C81      C        0.97780    0.31360    0.65870    1.000
    C82      C        0.99500    0.34490    0.67410    1.000
    C83      C        0.02810    0.35840    0.65870    1.000
    C84      C        0.04392    0.34060    0.62800    1.000
    C85      C        0.02670    0.30930    0.61267    1.000
    C86      C        0.99370    0.29580    0.62800    1.000
    C87      C        0.08230    0.36830    0.61530    1.000
    C88      C        0.07060    0.38300    0.71290    1.000
    C89      C        0.10340    0.36080    0.58530    1.000
    C90      C        0.02930    0.43190    0.66670    1.000
    C91      C        0.05270    0.39430    0.67220    1.000
    C92      C        0.01490    0.44020    0.62870    1.000
    C93      C        0.09260    0.35000    0.71630    1.000
    O10      O        0.81240    0.30340    0.72230    1.000
    C94      C        0.87098    0.28770    0.69781    1.000
    C95      C        0.89530    0.26061    0.68400    1.000
    C96      C        0.93030    0.27090    0.67063    1.000
    C97      C        0.94099    0.30830    0.67100    1.000
    C98      C        0.91670    0.33534    0.68470    1.000
    C99      C        0.88170    0.32500    0.69820    1.000
    C100     C        0.83180    0.27670    0.71220    1.000
    Zn5      Zn       0.75177    0.23602    0.80392    1.000
    O11      O        0.32596    0.25610    0.29190    1.000
    C101     C        0.47780    0.18640    0.34130    1.000
    C102     C        0.49500    0.15510    0.32590    1.000
    C103     C        0.52810    0.14160    0.34130    1.000
    C104     C        0.54392    0.15940    0.37200    1.000
    C105     C        0.52670    0.19070    0.38733    1.000
    C106     C        0.49370    0.20420    0.37200    1.000
    C107     C        0.58230    0.13170    0.38470    1.000
    C108     C        0.57060    0.11700    0.28710    1.000
    C109     C        0.60340    0.13920    0.41470    1.000
    C110     C        0.52930    0.06810    0.33330    1.000
    C111     C        0.55270    0.10570    0.32780    1.000
    C112     C        0.51490    0.05980    0.37130    1.000
    C113     C        0.59260    0.15000    0.28370    1.000
    O12      O        0.31240    0.19660    0.27770    1.000
    C114     C        0.37098    0.21230    0.30219    1.000
    C115     C        0.39530    0.23939    0.31600    1.000
    C116     C        0.43030    0.22910    0.32937    1.000
    C117     C        0.44099    0.19170    0.32900    1.000
    C118     C        0.41670    0.16466    0.31530    1.000
    C119     C        0.38170    0.17500    0.30180    1.000
    C120     C        0.33180    0.22330    0.28780    1.000
    Zn6      Zn       0.25177    0.26398    0.19608    1.000
    O13      O        0.67404    0.75610    0.20810    1.000
    C121     C        0.52220    0.68640    0.15870    1.000
    C122     C        0.50500    0.65510    0.17410    1.000
    C123     C        0.47190    0.64160    0.15870    1.000
    C124     C        0.45608    0.65940    0.12800    1.000
    C125     C        0.47330    0.69070    0.11267    1.000
    C126     C        0.50630    0.70420    0.12800    1.000
    C127     C        0.41770    0.63170    0.11530    1.000
    C128     C        0.42940    0.61700    0.21290    1.000
    C129     C        0.39660    0.63920    0.08530    1.000
    C130     C        0.47070    0.56810    0.16670    1.000
    C131     C        0.44730    0.60570    0.17220    1.000
    C132     C        0.48510    0.55980    0.12870    1.000
    C133     C        0.40740    0.65000    0.21630    1.000
    O14      O        0.68760    0.69660    0.22230    1.000
    C134     C        0.62902    0.71230    0.19781    1.000
    C135     C        0.60470    0.73939    0.18400    1.000
    C136     C        0.56970    0.72910    0.17063    1.000
    C137     C        0.55901    0.69170    0.17100    1.000
    C138     C        0.58330    0.66466    0.18470    1.000
    C139     C        0.61830    0.67500    0.19820    1.000
    C140     C        0.66820    0.72330    0.21220    1.000
    Zn7      Zn       0.74823    0.76398    0.30392    1.000
    O15      O        0.17404    0.74390    0.79190    1.000
    C141     C        0.02220    0.81360    0.84130    1.000
    C142     C        0.00500    0.84490    0.82590    1.000
    C143     C        0.97190    0.85840    0.84130    1.000
    C144     C        0.95608    0.84060    0.87200    1.000
    C145     C        0.97330    0.80930    0.88733    1.000
    C146     C        0.00630    0.79580    0.87200    1.000
    C147     C        0.91770    0.86830    0.88470    1.000
    C148     C        0.92940    0.88300    0.78710    1.000
    C149     C        0.89660    0.86080    0.91470    1.000
    C150     C        0.97070    0.93190    0.83330    1.000
    C151     C        0.94730    0.89430    0.82780    1.000
    C152     C        0.98510    0.94020    0.87130    1.000
    C153     C        0.90740    0.85000    0.78370    1.000
    O16      O        0.18760    0.80340    0.77770    1.000
    C154     C        0.12902    0.78770    0.80219    1.000
    C155     C        0.10470    0.76061    0.81600    1.000
    C156     C        0.06970    0.77090    0.82937    1.000
    C157     C        0.05901    0.80830    0.82900    1.000
    C158     C        0.08330    0.83534    0.81530    1.000
    C159     C        0.11830    0.82500    0.80180    1.000
    C160     C        0.16820    0.77670    0.78780    1.000
    Zn8      Zn       0.24823    0.73602    0.69608    1.000
    O17      O        0.70810    0.82596    0.24390    1.000
    C161     C        0.65870    0.97780    0.31360    1.000
    C162     C        0.67410    0.99500    0.34490    1.000
    C163     C        0.65870    0.02810    0.35840    1.000
    C164     C        0.62800    0.04392    0.34060    1.000
    C165     C        0.61267    0.02670    0.30930    1.000
    C166     C        0.62800    0.99370    0.29580    1.000
    C167     C        0.61530    0.08230    0.36830    1.000
    C168     C        0.71290    0.07060    0.38300    1.000
    C169     C        0.58530    0.10340    0.36080    1.000
    C170     C        0.66670    0.02930    0.43190    1.000
    C171     C        0.67220    0.05270    0.39430    1.000
    C172     C        0.62870    0.01490    0.44020    1.000
    C173     C        0.71630    0.09260    0.35000    1.000
    O18      O        0.72230    0.81240    0.30340    1.000
    C174     C        0.69781    0.87098    0.28770    1.000
    C175     C        0.68400    0.89530    0.26061    1.000
    C176     C        0.67063    0.93030    0.27090    1.000
    C177     C        0.67100    0.94099    0.30830    1.000
    C178     C        0.68470    0.91670    0.33534    1.000
    C179     C        0.69820    0.88170    0.32500    1.000
    C180     C        0.71220    0.83180    0.27670    1.000
    Zn9      Zn       0.80392    0.75177    0.23602    1.000
    O19      O        0.29190    0.32596    0.25610    1.000
    C181     C        0.34130    0.47780    0.18640    1.000
    C182     C        0.32590    0.49500    0.15510    1.000
    C183     C        0.34130    0.52810    0.14160    1.000
    C184     C        0.37200    0.54392    0.15940    1.000
    C185     C        0.38733    0.52670    0.19070    1.000
    C186     C        0.37200    0.49370    0.20420    1.000
    C187     C        0.38470    0.58230    0.13170    1.000
    C188     C        0.28710    0.57060    0.11700    1.000
    C189     C        0.41470    0.60340    0.13920    1.000
    C190     C        0.33330    0.52930    0.06810    1.000
    C191     C        0.32780    0.55270    0.10570    1.000
    C192     C        0.37130    0.51490    0.05980    1.000
    C193     C        0.28370    0.59260    0.15000    1.000
    O20      O        0.27770    0.31240    0.19660    1.000
    C194     C        0.30219    0.37098    0.21230    1.000
    C195     C        0.31600    0.39530    0.23939    1.000
    C196     C        0.32937    0.43030    0.22910    1.000
    C197     C        0.32900    0.44099    0.19170    1.000
    C198     C        0.31530    0.41670    0.16466    1.000
    C199     C        0.30180    0.38170    0.17500    1.000
    C200     C        0.28780    0.33180    0.22330    1.000
    Zn10     Zn       0.19608    0.25177    0.26398    1.000
    O21      O        0.20810    0.67404    0.75610    1.000
    C201     C        0.15870    0.52220    0.68640    1.000
    C202     C        0.17410    0.50500    0.65510    1.000
    C203     C        0.15870    0.47190    0.64160    1.000
    C204     C        0.12800    0.45608    0.65940    1.000
    C205     C        0.11267    0.47330    0.69070    1.000
    C206     C        0.12800    0.50630    0.70420    1.000
    C207     C        0.11530    0.41770    0.63170    1.000
    C208     C        0.21290    0.42940    0.61700    1.000
    C209     C        0.08530    0.39660    0.63920    1.000
    C210     C        0.16670    0.47070    0.56810    1.000
    C211     C        0.17220    0.44730    0.60570    1.000
    C212     C        0.12870    0.48510    0.55980    1.000
    C213     C        0.21630    0.40740    0.65000    1.000
    O22      O        0.22230    0.68760    0.69660    1.000
    C214     C        0.19781    0.62902    0.71230    1.000
    C215     C        0.18400    0.60470    0.73939    1.000
    C216     C        0.17063    0.56970    0.72910    1.000
    C217     C        0.17100    0.55901    0.69170    1.000
    C218     C        0.18470    0.58330    0.66466    1.000
    C219     C        0.19820    0.61830    0.67500    1.000
    C220     C        0.21220    0.66820    0.72330    1.000
    Zn11     Zn       0.30392    0.74823    0.76398    1.000
    O23      O        0.79190    0.17404    0.74390    1.000
    C221     C        0.84130    0.02220    0.81360    1.000
    C222     C        0.82590    0.00500    0.84490    1.000
    C223     C        0.84130    0.97190    0.85840    1.000
    C224     C        0.87200    0.95608    0.84060    1.000
    C225     C        0.88733    0.97330    0.80930    1.000
    C226     C        0.87200    0.00630    0.79580    1.000
    C227     C        0.88470    0.91770    0.86830    1.000
    C228     C        0.78710    0.92940    0.88300    1.000
    C229     C        0.91470    0.89660    0.86080    1.000
    C230     C        0.83330    0.97070    0.93190    1.000
    C231     C        0.82780    0.94730    0.89430    1.000
    C232     C        0.87130    0.98510    0.94020    1.000
    C233     C        0.78370    0.90740    0.85000    1.000
    O24      O        0.77770    0.18760    0.80340    1.000
    C234     C        0.80219    0.12902    0.78770    1.000
    C235     C        0.81600    0.10470    0.76061    1.000
    C236     C        0.82937    0.06970    0.77090    1.000
    C237     C        0.82900    0.05901    0.80830    1.000
    C238     C        0.81530    0.08330    0.83534    1.000
    C239     C        0.80180    0.11830    0.82500    1.000
    C240     C        0.78780    0.16820    0.77670    1.000
    Zn12     Zn       0.69608    0.24823    0.73602    1.000
    Zn13     Zn       0.22149    0.72149    0.77851    1.000
    O25      O        0.25299    0.75299    0.74701    1.000
    Zn14     Zn       0.27851    0.27851    0.27851    1.000
    O26      O        0.24701    0.24701    0.24701    1.000
    Zn15     Zn       0.77851    0.22149    0.72149    1.000
    O27      O        0.74701    0.25299    0.75299    1.000
    Zn16     Zn       0.72149    0.77851    0.22149    1.000
    O28      O        0.75299    0.74701    0.25299    1.000
    O29      O        0.74390    0.20810    0.32596    1.000
    C241     C        0.81360    0.15870    0.47780    1.000
    C242     C        0.84490    0.17410    0.49500    1.000
    C243     C        0.85840    0.15870    0.52810    1.000
    C244     C        0.84060    0.12800    0.54392    1.000
    C245     C        0.80930    0.11267    0.52670    1.000
    C246     C        0.79580    0.12800    0.49370    1.000
    C247     C        0.86830    0.11530    0.58230    1.000
    C248     C        0.88300    0.21290    0.57060    1.000
    C249     C        0.86080    0.08530    0.60340    1.000
    C250     C        0.93190    0.16670    0.52930    1.000
    C251     C        0.89430    0.17220    0.55270    1.000
    C252     C        0.94020    0.12870    0.51490    1.000
    C253     C        0.85000    0.21630    0.59260    1.000
    O30      O        0.80340    0.22230    0.31240    1.000
    C254     C        0.78770    0.19781    0.37098    1.000
    C255     C        0.76061    0.18400    0.39530    1.000
    C256     C        0.77090    0.17063    0.43030    1.000
    C257     C        0.80830    0.17100    0.44099    1.000
    C258     C        0.83534    0.18470    0.41670    1.000
    C259     C        0.82500    0.19820    0.38170    1.000
    C260     C        0.77670    0.21220    0.33180    1.000
    Zn17     Zn       0.73602    0.30392    0.25177    1.000
    O31      O        0.75610    0.79190    0.82596    1.000
    C261     C        0.68640    0.84130    0.97780    1.000
    C262     C        0.65510    0.82590    0.99500    1.000
    C263     C        0.64160    0.84130    0.02810    1.000
    C264     C        0.65940    0.87200    0.04392    1.000
    C265     C        0.69070    0.88733    0.02670    1.000
    C266     C        0.70420    0.87200    0.99370    1.000
    C267     C        0.63170    0.88470    0.08230    1.000
    C268     C        0.61700    0.78710    0.07060    1.000
    C269     C        0.63920    0.91470    0.10340    1.000
    C270     C        0.56810    0.83330    0.02930    1.000
    C271     C        0.60570    0.82780    0.05270    1.000
    C272     C        0.55980    0.87130    0.01490    1.000
    C273     C        0.65000    0.78370    0.09260    1.000
    O32      O        0.69660    0.77770    0.81240    1.000
    C274     C        0.71230    0.80219    0.87098    1.000
    C275     C        0.73939    0.81600    0.89530    1.000
    C276     C        0.72910    0.82937    0.93030    1.000
    C277     C        0.69170    0.82900    0.94099    1.000
    C278     C        0.66466    0.81530    0.91670    1.000
    C279     C        0.67500    0.80180    0.88170    1.000
    C280     C        0.72330    0.78780    0.83180    1.000
    Zn18     Zn       0.76398    0.69608    0.75177    1.000
    O33      O        0.25610    0.70810    0.17404    1.000
    C281     C        0.18640    0.65870    0.02220    1.000
    C282     C        0.15510    0.67410    0.00500    1.000
    C283     C        0.14160    0.65870    0.97190    1.000
    C284     C        0.15940    0.62800    0.95608    1.000
    C285     C        0.19070    0.61267    0.97330    1.000
    C286     C        0.20420    0.62800    0.00630    1.000
    C287     C        0.13170    0.61530    0.91770    1.000
    C288     C        0.11700    0.71290    0.92940    1.000
    C289     C        0.13920    0.58530    0.89660    1.000
    C290     C        0.06810    0.66670    0.97070    1.000
    C291     C        0.10570    0.67220    0.94730    1.000
    C292     C        0.05980    0.62870    0.98510    1.000
    C293     C        0.15000    0.71630    0.90740    1.000
    O34      O        0.19660    0.72230    0.18760    1.000
    C294     C        0.21230    0.69781    0.12902    1.000
    C295     C        0.23939    0.68400    0.10470    1.000
    C296     C        0.22910    0.67063    0.06970    1.000
    C297     C        0.19170    0.67100    0.05901    1.000
    C298     C        0.16466    0.68470    0.08330    1.000
    C299     C        0.17500    0.69820    0.11830    1.000
    C300     C        0.22330    0.71220    0.16820    1.000
    Zn19     Zn       0.26398    0.80392    0.24823    1.000
    O35      O        0.24390    0.29190    0.67404    1.000
    C301     C        0.31360    0.34130    0.52220    1.000
    C302     C        0.34490    0.32590    0.50500    1.000
    C303     C        0.35840    0.34130    0.47190    1.000
    C304     C        0.34060    0.37200    0.45608    1.000
    C305     C        0.30930    0.38733    0.47330    1.000
    C306     C        0.29580    0.37200    0.50630    1.000
    C307     C        0.36830    0.38470    0.41770    1.000
    C308     C        0.38300    0.28710    0.42940    1.000
    C309     C        0.36080    0.41470    0.39660    1.000
    C310     C        0.43190    0.33330    0.47070    1.000
    C311     C        0.39430    0.32780    0.44730    1.000
    C312     C        0.44020    0.37130    0.48510    1.000
    C313     C        0.35000    0.28370    0.40740    1.000
    O36      O        0.30340    0.27770    0.68760    1.000
    C314     C        0.28770    0.30219    0.62902    1.000
    C315     C        0.26061    0.31600    0.60470    1.000
    C316     C        0.27090    0.32937    0.56970    1.000
    C317     C        0.30830    0.32900    0.55901    1.000
    C318     C        0.33534    0.31530    0.58330    1.000
    C319     C        0.32500    0.30180    0.61830    1.000
    C320     C        0.27670    0.28780    0.66820    1.000
    Zn20     Zn       0.23602    0.19608    0.74823    1.000
    O37      O        0.32596    0.74390    0.20810    1.000
    C321     C        0.47780    0.81360    0.15870    1.000
    C322     C        0.49500    0.84490    0.17410    1.000
    C323     C        0.52810    0.85840    0.15870    1.000
    C324     C        0.54392    0.84060    0.12800    1.000
    C325     C        0.52670    0.80930    0.11267    1.000
    C326     C        0.49370    0.79580    0.12800    1.000
    C327     C        0.58230    0.86830    0.11530    1.000
    C328     C        0.57060    0.88300    0.21290    1.000
    C329     C        0.60340    0.86080    0.08530    1.000
    C330     C        0.52930    0.93190    0.16670    1.000
    C331     C        0.55270    0.89430    0.17220    1.000
    C332     C        0.51490    0.94020    0.12870    1.000
    C333     C        0.59260    0.85000    0.21630    1.000
    O38      O        0.31240    0.80340    0.22230    1.000
    C334     C        0.37098    0.78770    0.19781    1.000
    C335     C        0.39530    0.76061    0.18400    1.000
    C336     C        0.43030    0.77090    0.17063    1.000
    C337     C        0.44099    0.80830    0.17100    1.000
    C338     C        0.41670    0.83534    0.18470    1.000
    C339     C        0.38170    0.82500    0.19820    1.000
    C340     C        0.33180    0.77670    0.21220    1.000
    Zn21     Zn       0.25177    0.73602    0.30392    1.000
    O39      O        0.82596    0.75610    0.79190    1.000
    C341     C        0.97780    0.68640    0.84130    1.000
    C342     C        0.99500    0.65510    0.82590    1.000
    C343     C        0.02810    0.64160    0.84130    1.000
    C344     C        0.04392    0.65940    0.87200    1.000
    C345     C        0.02670    0.69070    0.88733    1.000
    C346     C        0.99370    0.70420    0.87200    1.000
    C347     C        0.08230    0.63170    0.88470    1.000
    C348     C        0.07060    0.61700    0.78710    1.000
    C349     C        0.10340    0.63920    0.91470    1.000
    C350     C        0.02930    0.56810    0.83330    1.000
    C351     C        0.05270    0.60570    0.82780    1.000
    C352     C        0.01490    0.55980    0.87130    1.000
    C353     C        0.09260    0.65000    0.78370    1.000
    O40      O        0.81240    0.69660    0.77770    1.000
    C354     C        0.87098    0.71230    0.80219    1.000
    C355     C        0.89530    0.73939    0.81600    1.000
    C356     C        0.93030    0.72910    0.82937    1.000
    C357     C        0.94099    0.69170    0.82900    1.000
    C358     C        0.91670    0.66466    0.81530    1.000
    C359     C        0.88170    0.67500    0.80180    1.000
    C360     C        0.83180    0.72330    0.78780    1.000
    Zn22     Zn       0.75177    0.76398    0.69608    1.000
    O41      O        0.17404    0.25610    0.70810    1.000
    C361     C        0.02220    0.18640    0.65870    1.000
    C362     C        0.00500    0.15510    0.67410    1.000
    C363     C        0.97190    0.14160    0.65870    1.000
    C364     C        0.95608    0.15940    0.62800    1.000
    C365     C        0.97330    0.19070    0.61267    1.000
    C366     C        0.00630    0.20420    0.62800    1.000
    C367     C        0.91770    0.13170    0.61530    1.000
    C368     C        0.92940    0.11700    0.71290    1.000
    C369     C        0.89660    0.13920    0.58530    1.000
    C370     C        0.97070    0.06810    0.66670    1.000
    C371     C        0.94730    0.10570    0.67220    1.000
    C372     C        0.98510    0.05980    0.62870    1.000
    C373     C        0.90740    0.15000    0.71630    1.000
    O42      O        0.18760    0.19660    0.72230    1.000
    C374     C        0.12902    0.21230    0.69781    1.000
    C375     C        0.10470    0.23939    0.68400    1.000
    C376     C        0.06970    0.22910    0.67063    1.000
    C377     C        0.05901    0.19170    0.67100    1.000
    C378     C        0.08330    0.16466    0.68470    1.000
    C379     C        0.11830    0.17500    0.69820    1.000
    C380     C        0.16820    0.22330    0.71220    1.000
    Zn23     Zn       0.24823    0.26398    0.80392    1.000
    O43      O        0.67404    0.24390    0.29190    1.000
    C381     C        0.52220    0.31360    0.34130    1.000
    C382     C        0.50500    0.34490    0.32590    1.000
    C383     C        0.47190    0.35840    0.34130    1.000
    C384     C        0.45608    0.34060    0.37200    1.000
    C385     C        0.47330    0.30930    0.38733    1.000
    C386     C        0.50630    0.29580    0.37200    1.000
    C387     C        0.41770    0.36830    0.38470    1.000
    C388     C        0.42940    0.38300    0.28710    1.000
    C389     C        0.39660    0.36080    0.41470    1.000
    C390     C        0.47070    0.43190    0.33330    1.000
    C391     C        0.44730    0.39430    0.32780    1.000
    C392     C        0.48510    0.44020    0.37130    1.000
    C393     C        0.40740    0.35000    0.28370    1.000
    O44      O        0.68760    0.30340    0.27770    1.000
    C394     C        0.62902    0.28770    0.30219    1.000
    C395     C        0.60470    0.26061    0.31600    1.000
    C396     C        0.56970    0.27090    0.32937    1.000
    C397     C        0.55901    0.30830    0.32900    1.000
    C398     C        0.58330    0.33534    0.31530    1.000
    C399     C        0.61830    0.32500    0.30180    1.000
    C400     C        0.66820    0.27670    0.28780    1.000
    Zn24     Zn       0.74823    0.23602    0.19608    1.000
    O45      O        0.20810    0.32596    0.74390    1.000
    C401     C        0.15870    0.47780    0.81360    1.000
    C402     C        0.17410    0.49500    0.84490    1.000
    C403     C        0.15870    0.52810    0.85840    1.000
    C404     C        0.12800    0.54392    0.84060    1.000
    C405     C        0.11267    0.52670    0.80930    1.000
    C406     C        0.12800    0.49370    0.79580    1.000
    C407     C        0.11530    0.58230    0.86830    1.000
    C408     C        0.21290    0.57060    0.88300    1.000
    C409     C        0.08530    0.60340    0.86080    1.000
    C410     C        0.16670    0.52930    0.93190    1.000
    C411     C        0.17220    0.55270    0.89430    1.000
    C412     C        0.12870    0.51490    0.94020    1.000
    C413     C        0.21630    0.59260    0.85000    1.000
    O46      O        0.22230    0.31240    0.80340    1.000
    C414     C        0.19781    0.37098    0.78770    1.000
    C415     C        0.18400    0.39530    0.76061    1.000
    C416     C        0.17063    0.43030    0.77090    1.000
    C417     C        0.17100    0.44099    0.80830    1.000
    C418     C        0.18470    0.41670    0.83534    1.000
    C419     C        0.19820    0.38170    0.82500    1.000
    C420     C        0.21220    0.33180    0.77670    1.000
    Zn25     Zn       0.30392    0.25177    0.73602    1.000
    O47      O        0.79190    0.82596    0.75610    1.000
    C421     C        0.84130    0.97780    0.68640    1.000
    C422     C        0.82590    0.99500    0.65510    1.000
    C423     C        0.84130    0.02810    0.64160    1.000
    C424     C        0.87200    0.04392    0.65940    1.000
    C425     C        0.88733    0.02670    0.69070    1.000
    C426     C        0.87200    0.99370    0.70420    1.000
    C427     C        0.88470    0.08230    0.63170    1.000
    C428     C        0.78710    0.07060    0.61700    1.000
    C429     C        0.91470    0.10340    0.63920    1.000
    C430     C        0.83330    0.02930    0.56810    1.000
    C431     C        0.82780    0.05270    0.60570    1.000
    C432     C        0.87130    0.01490    0.55980    1.000
    C433     C        0.78370    0.09260    0.65000    1.000
    O48      O        0.77770    0.81240    0.69660    1.000
    C434     C        0.80219    0.87098    0.71230    1.000
    C435     C        0.81600    0.89530    0.73939    1.000
    C436     C        0.82937    0.93030    0.72910    1.000
    C437     C        0.82900    0.94099    0.69170    1.000
    C438     C        0.81530    0.91670    0.66466    1.000
    C439     C        0.80180    0.88170    0.67500    1.000
    C440     C        0.78780    0.83180    0.72330    1.000
    Zn26     Zn       0.69608    0.75177    0.76398    1.000
    O49      O        0.70810    0.17404    0.25610    1.000
    C441     C        0.65870    0.02220    0.18640    1.000
    C442     C        0.67410    0.00500    0.15510    1.000
    C443     C        0.65870    0.97190    0.14160    1.000
    C444     C        0.62800    0.95608    0.15940    1.000
    C445     C        0.61267    0.97330    0.19070    1.000
    C446     C        0.62800    0.00630    0.20420    1.000
    C447     C        0.61530    0.91770    0.13170    1.000
    C448     C        0.71290    0.92940    0.11700    1.000
    C449     C        0.58530    0.89660    0.13920    1.000
    C450     C        0.66670    0.97070    0.06810    1.000
    C451     C        0.67220    0.94730    0.10570    1.000
    C452     C        0.62870    0.98510    0.05980    1.000
    C453     C        0.71630    0.90740    0.15000    1.000
    O50      O        0.72230    0.18760    0.19660    1.000
    C454     C        0.69781    0.12902    0.21230    1.000
    C455     C        0.68400    0.10470    0.23939    1.000
    C456     C        0.67063    0.06970    0.22910    1.000
    C457     C        0.67100    0.05901    0.19170    1.000
    C458     C        0.68470    0.08330    0.16466    1.000
    C459     C        0.69820    0.11830    0.17500    1.000
    C460     C        0.71220    0.16820    0.22330    1.000
    Zn27     Zn       0.80392    0.24823    0.26398    1.000
    O51      O        0.29190    0.67404    0.24390    1.000
    C461     C        0.34130    0.52220    0.31360    1.000
    C462     C        0.32590    0.50500    0.34490    1.000
    C463     C        0.34130    0.47190    0.35840    1.000
    C464     C        0.37200    0.45608    0.34060    1.000
    C465     C        0.38733    0.47330    0.30930    1.000
    C466     C        0.37200    0.50630    0.29580    1.000
    C467     C        0.38470    0.41770    0.36830    1.000
    C468     C        0.28710    0.42940    0.38300    1.000
    C469     C        0.41470    0.39660    0.36080    1.000
    C470     C        0.33330    0.47070    0.43190    1.000
    C471     C        0.32780    0.44730    0.39430    1.000
    C472     C        0.37130    0.48510    0.44020    1.000
    C473     C        0.28370    0.40740    0.35000    1.000
    O52      O        0.27770    0.68760    0.30340    1.000
    C474     C        0.30219    0.62902    0.28770    1.000
    C475     C        0.31600    0.60470    0.26061    1.000
    C476     C        0.32937    0.56970    0.27090    1.000
    C477     C        0.32900    0.55901    0.30830    1.000
    C478     C        0.31530    0.58330    0.33534    1.000
    C479     C        0.30180    0.61830    0.32500    1.000
    C480     C        0.28780    0.66820    0.27670    1.000
    Zn28     Zn       0.19608    0.74823    0.23602    1.000
    Zn29     Zn       0.72149    0.22149    0.27851    1.000
    O53      O        0.75299    0.25299    0.24701    1.000
    Zn30     Zn       0.77851    0.77851    0.77851    1.000
    O54      O        0.74701    0.74701    0.74701    1.000
    Zn31     Zn       0.27851    0.72149    0.22149    1.000
    O55      O        0.24701    0.75299    0.25299    1.000
    Zn32     Zn       0.22149    0.27851    0.72149    1.000
    O56      O        0.25299    0.24701    0.75299    1.000
