# CIF file generated by openbabel 3.1.0, see https://openbabel.org
data_I
_chemical_name_common 'image0'
_cell_length_a 15.466
_cell_length_b 8.0557
_cell_length_c 18.445
_cell_angle_alpha 90
_cell_angle_beta 123.605
_cell_angle_gamma 90
_space_group_name_H-M_alt 'P 1'
_space_group_name_Hall 'P 1'
loop_
    _symmetry_equiv_pos_as_xyz
    x,y,z
loop_
    _atom_site_label
    _atom_site_type_symbol
    _atom_site_fract_x
    _atom_site_fract_y
    _atom_site_fract_z
    _atom_site_occupancy
    Cd1      Cd       0.02571    0.61005    0.86584    1.000
    Br1      Br       0.67401    0.79390    0.64821    1.000
    C1       C        0.84470    0.96870    0.79020    1.000
    C2       C        0.89330    0.05780    0.86820    1.000
    H1       H        0.95940    0.10070    0.89140    1.000
    C3       C        0.84450    0.08330    0.91150    1.000
    C4       C        0.74720    0.01390    0.87780    1.000
    H2       H        0.71510    0.02670    0.90770    1.000
    C5       C        0.69750    0.92670    0.80090    1.000
    H3       H        0.63190    0.88220    0.77840    1.000
    C6       C        0.74640    0.90580    0.75720    1.000
    C7       C        0.90070    0.94880    0.74410    1.000
    C8       C        0.89460    0.18890    0.99240    1.000
    C9       C        0.81960    0.39960    0.72870    1.000
    H4       H        0.84630    0.37250    0.69580    1.000
    C10      C        0.79890    0.49550    0.82330    1.000
    H5       H        0.81180    0.55100    0.87260    1.000
    C11      C        0.64400    0.26470    0.63210    1.000
    H6       H        0.60700    0.19280    0.64840    1.000
    H7       H        0.67500    0.19570    0.60930    1.000
    C12      C        0.56830    0.38490    0.56240    1.000
    C13      C        0.47990    0.43550    0.55750    1.000
    H8       H        0.46500    0.39180    0.59600    1.000
    C14      C        0.58670    0.44940    0.50410    1.000
    H9       H        0.64510    0.41560    0.50560    1.000
    N1       N        0.86840    0.48920    0.80150    1.000
    N2       N        0.71100    0.41730    0.76980    1.000
    N3       N        0.72670    0.35500    0.71010    1.000
    O1       O        0.96260    0.83250    0.76390    1.000
    O2       O        0.87940    0.05800    0.68780    1.000
    O3       O        0.97630    0.26810    0.01653    1.000
    O4       O        0.85270    0.19380    0.03530    1.000
    Cd2      Cd       0.97429    0.11005    0.63416    1.000
    Br2      Br       0.32599    0.29390    0.85179    1.000
    C15      C        0.15530    0.46870    0.70980    1.000
    C16      C        0.10670    0.55780    0.63180    1.000
    H10      H        0.04060    0.60070    0.60860    1.000
    C17      C        0.15550    0.58330    0.58850    1.000
    C18      C        0.25280    0.51390    0.62220    1.000
    H11      H        0.28490    0.52670    0.59230    1.000
    C19      C        0.30250    0.42670    0.69910    1.000
    H12      H        0.36810    0.38220    0.72160    1.000
    C20      C        0.25360    0.40580    0.74280    1.000
    C21      C        0.09930    0.44880    0.75590    1.000
    C22      C        0.10540    0.68890    0.50760    1.000
    C23      C        0.18040    0.89960    0.77130    1.000
    H13      H        0.15370    0.87250    0.80420    1.000
    C24      C        0.20110    0.99550    0.67670    1.000
    H14      H        0.18820    0.05100    0.62740    1.000
    C25      C        0.35600    0.76470    0.86790    1.000
    H15      H        0.39300    0.69280    0.85160    1.000
    H16      H        0.32500    0.69570    0.89070    1.000
    C26      C        0.43170    0.88490    0.93760    1.000
    C27      C        0.52010    0.93550    0.94250    1.000
    H17      H        0.53500    0.89180    0.90400    1.000
    C28      C        0.41330    0.94940    0.99590    1.000
    H18      H        0.35490    0.91560    0.99440    1.000
    N4       N        0.13160    0.98920    0.69850    1.000
    N5       N        0.28900    0.91730    0.73020    1.000
    N6       N        0.27330    0.85500    0.78990    1.000
    O5       O        0.03740    0.33250    0.73610    1.000
    O6       O        0.12060    0.55800    0.81220    1.000
    O7       O        0.02370    0.76810    0.48347    1.000
    O8       O        0.14730    0.69380    0.46470    1.000
    Cd3      Cd       0.97429    0.38995    0.13416    1.000
    Br3      Br       0.32599    0.20610    0.35179    1.000
    C29      C        0.15530    0.03130    0.20980    1.000
    C30      C        0.10670    0.94220    0.13180    1.000
    H19      H        0.04060    0.89930    0.10860    1.000
    C31      C        0.15550    0.91670    0.08850    1.000
    C32      C        0.25280    0.98610    0.12220    1.000
    H20      H        0.28490    0.97330    0.09230    1.000
    C33      C        0.30250    0.07330    0.19910    1.000
    H21      H        0.36810    0.11780    0.22160    1.000
    C34      C        0.25360    0.09420    0.24280    1.000
    C35      C        0.09930    0.05120    0.25590    1.000
    C36      C        0.10540    0.81110    0.00760    1.000
    C37      C        0.18040    0.60040    0.27130    1.000
    H22      H        0.15370    0.62750    0.30420    1.000
    C38      C        0.20110    0.50450    0.17670    1.000
    H23      H        0.18820    0.44900    0.12740    1.000
    C39      C        0.35600    0.73530    0.36790    1.000
    H24      H        0.39300    0.80720    0.35160    1.000
    H25      H        0.32500    0.80430    0.39070    1.000
    C40      C        0.43170    0.61510    0.43760    1.000
    C41      C        0.52010    0.56450    0.44250    1.000
    H26      H        0.53500    0.60820    0.40400    1.000
    C42      C        0.41330    0.55060    0.49590    1.000
    H27      H        0.35490    0.58440    0.49440    1.000
    N7       N        0.13160    0.51080    0.19850    1.000
    N8       N        0.28900    0.58270    0.23020    1.000
    N9       N        0.27330    0.64500    0.28990    1.000
    O9       O        0.03740    0.16750    0.23610    1.000
    O10      O        0.12060    0.94200    0.31220    1.000
    O11      O        0.02370    0.73190    0.98347    1.000
    O12      O        0.14730    0.80620    0.96470    1.000
    Cd4      Cd       0.02571    0.88995    0.36584    1.000
    Br4      Br       0.67401    0.70610    0.14821    1.000
    C43      C        0.84470    0.53130    0.29020    1.000
    C44      C        0.89330    0.44220    0.36820    1.000
    H28      H        0.95940    0.39930    0.39140    1.000
    C45      C        0.84450    0.41670    0.41150    1.000
    C46      C        0.74720    0.48610    0.37780    1.000
    H29      H        0.71510    0.47330    0.40770    1.000
    C47      C        0.69750    0.57330    0.30090    1.000
    H30      H        0.63190    0.61780    0.27840    1.000
    C48      C        0.74640    0.59420    0.25720    1.000
    C49      C        0.90070    0.55120    0.24410    1.000
    C50      C        0.89460    0.31110    0.49240    1.000
    C51      C        0.81960    0.10040    0.22870    1.000
    H31      H        0.84630    0.12750    0.19580    1.000
    C52      C        0.79890    0.00450    0.32330    1.000
    H32      H        0.81180    0.94900    0.37260    1.000
    C53      C        0.64400    0.23530    0.13210    1.000
    H33      H        0.60700    0.30720    0.14840    1.000
    H34      H        0.67500    0.30430    0.10930    1.000
    C54      C        0.56830    0.11510    0.06240    1.000
    C55      C        0.47990    0.06450    0.05750    1.000
    H35      H        0.46500    0.10820    0.09600    1.000
    C56      C        0.58670    0.05060    0.00410    1.000
    H36      H        0.64510    0.08440    0.00560    1.000
    N10      N        0.86840    0.01080    0.30150    1.000
    N11      N        0.71100    0.08270    0.26980    1.000
    N12      N        0.72670    0.14500    0.21010    1.000
    O13      O        0.96260    0.66750    0.26390    1.000
    O14      O        0.87940    0.44200    0.18780    1.000
    O15      O        0.97630    0.23190    0.51653    1.000
    O16      O        0.85270    0.30620    0.53530    1.000
