# CIF file generated by openbabel 3.1.0, see https://openbabel.org
data_I
_chemical_name_common 'image0'
_cell_length_a 18.185
_cell_length_b 28.67
_cell_length_c 20.572
_cell_angle_alpha 90
_cell_angle_beta 108.003
_cell_angle_gamma 90
_space_group_name_H-M_alt 'P 1'
_space_group_name_Hall 'P 1'
loop_
    _symmetry_equiv_pos_as_xyz
    x,y,z
loop_
    _atom_site_label
    _atom_site_type_symbol
    _atom_site_fract_x
    _atom_site_fract_y
    _atom_site_fract_z
    _atom_site_occupancy
    Cd1      Cd       0.59995    0.08184    0.50672    1.000
    C1       C        0.60790    0.05150    0.37920    1.000
    C2       C        0.61550    0.02720    0.31810    1.000
    C3       C        0.63810    0.98110    0.32210    1.000
    H1       H        0.65260    0.96600    0.36420    1.000
    C4       C        0.63960    0.95690    0.26430    1.000
    H2       H        0.65330    0.92560    0.26790    1.000
    C5       C        0.62130    0.97860    0.20110    1.000
    C6       C        0.59990    0.02430    0.19840    1.000
    H3       H        0.58740    0.03960    0.15660    1.000
    C7       C        0.59590    0.04870    0.25480    1.000
    H4       H        0.58010    0.07970    0.25040    1.000
    C8       C        0.62270    0.95030    0.13970    1.000
    C9       C        0.67910    0.16190    0.51150    1.000
    C10      C        0.71600    0.20740    0.50610    1.000
    C11      C        0.79370    0.21480    0.53650    1.000
    H5       H        0.82380    0.19080    0.56180    1.000
    C12      C        0.67130    0.24280    0.46950    1.000
    H6       H        0.61850    0.23860    0.44900    1.000
    C13      C        0.44110    0.13450    0.45780    1.000
    H7       H        0.47130    0.15320    0.43920    1.000
    C14      C        0.36790    0.14990    0.45380    1.000
    H8       H        0.35030    0.17890    0.43510    1.000
    C15      C        0.32250    0.12160    0.47780    1.000
    C16      C        0.35030    0.07990    0.50630    1.000
    H9       H        0.32080    0.05970    0.52360    1.000
    C17      C        0.42250    0.06970    0.50810    1.000
    H10      H        0.44150    0.04100    0.52710    1.000
    C18      C        0.24010    0.13500    0.47520    1.000
    H11      H        0.21880    0.11030    0.49630    1.000
    H12      H        0.24210    0.16310    0.50180    1.000
    C19      C        0.10780    0.15310    0.39740    1.000
    H13      H        0.10230    0.18260    0.41860    1.000
    H14      H        0.08380    0.12870    0.41640    1.000
    C20      C        0.07210    0.15570    0.31910    1.000
    H15      H        0.07690    0.18730    0.30400    1.000
    H16      H        0.10080    0.13530    0.29800    1.000
    C21      C        0.98710    0.14160    0.29510    1.000
    H17      H        0.98090    0.11040    0.30950    1.000
    H18      H        0.96110    0.16300    0.31650    1.000
    C22      C        0.04220    0.14020    0.33270    1.000
    H19      H        0.03420    0.10680    0.32990    1.000
    H20      H        0.99440    0.15530    0.33240    1.000
    C23      C        0.06820    0.15740    0.27340    1.000
    H21      H        0.07710    0.19050    0.27660    1.000
    H22      H        0.11550    0.14160    0.27580    1.000
    N1       N        0.47010    0.09540    0.48600    1.000
    N2       N        0.18910    0.14270    0.40690    1.000
    H23      H        0.19150    0.11740    0.38160    1.000
    H24      H        0.20830    0.16660    0.38910    1.000
    O1       O        0.62920    0.03010    0.43540    1.000
    O2       O        0.58280    0.09160    0.37470    1.000
    O3       O        0.60520    0.97240    0.08540    1.000
    O4       O        0.63450    0.90780    0.14350    1.000
    O5       O        0.71920    0.12550    0.52090    1.000
    O6       O        0.60840    0.16170    0.50440    1.000
    Cd2      Cd       0.09995    0.58184    0.50672    1.000
    C24      C        0.10790    0.55150    0.37920    1.000
    C25      C        0.11550    0.52720    0.31810    1.000
    C26      C        0.13810    0.48110    0.32210    1.000
    H25      H        0.15260    0.46600    0.36420    1.000
    C27      C        0.13960    0.45690    0.26430    1.000
    H26      H        0.15330    0.42560    0.26790    1.000
    C28      C        0.12130    0.47860    0.20110    1.000
    C29      C        0.09990    0.52430    0.19840    1.000
    H27      H        0.08740    0.53960    0.15660    1.000
    C30      C        0.09590    0.54870    0.25480    1.000
    H28      H        0.08010    0.57970    0.25040    1.000
    C31      C        0.12270    0.45030    0.13970    1.000
    C32      C        0.17910    0.66190    0.51150    1.000
    C33      C        0.21600    0.70740    0.50610    1.000
    C34      C        0.29370    0.71480    0.53650    1.000
    H29      H        0.32380    0.69080    0.56180    1.000
    C35      C        0.17130    0.74280    0.46950    1.000
    H30      H        0.11850    0.73860    0.44900    1.000
    C36      C        0.94110    0.63450    0.45780    1.000
    H31      H        0.97130    0.65320    0.43920    1.000
    C37      C        0.86790    0.64990    0.45380    1.000
    H32      H        0.85030    0.67890    0.43510    1.000
    C38      C        0.82250    0.62160    0.47780    1.000
    C39      C        0.85030    0.57990    0.50630    1.000
    H33      H        0.82080    0.55970    0.52360    1.000
    C40      C        0.92250    0.56970    0.50810    1.000
    H34      H        0.94150    0.54100    0.52710    1.000
    C41      C        0.74010    0.63500    0.47520    1.000
    H35      H        0.71880    0.61030    0.49630    1.000
    H36      H        0.74210    0.66310    0.50180    1.000
    C42      C        0.60780    0.65310    0.39740    1.000
    H37      H        0.60230    0.68260    0.41860    1.000
    H38      H        0.58380    0.62870    0.41640    1.000
    C43      C        0.57210    0.65570    0.31910    1.000
    H39      H        0.57690    0.68730    0.30400    1.000
    H40      H        0.60080    0.63530    0.29800    1.000
    C44      C        0.48710    0.64160    0.29510    1.000
    H41      H        0.48090    0.61040    0.30950    1.000
    H42      H        0.46110    0.66300    0.31650    1.000
    C45      C        0.54220    0.64020    0.33270    1.000
    H43      H        0.53420    0.60680    0.32990    1.000
    H44      H        0.49440    0.65530    0.33240    1.000
    C46      C        0.56820    0.65740    0.27340    1.000
    H45      H        0.57710    0.69050    0.27660    1.000
    H46      H        0.61550    0.64160    0.27580    1.000
    N3       N        0.97010    0.59540    0.48600    1.000
    N4       N        0.68910    0.64270    0.40690    1.000
    H47      H        0.69150    0.61740    0.38160    1.000
    H48      H        0.70830    0.66660    0.38910    1.000
    O7       O        0.12920    0.53010    0.43540    1.000
    O8       O        0.08280    0.59160    0.37470    1.000
    O9       O        0.10520    0.47240    0.08540    1.000
    O10      O        0.13450    0.40780    0.14350    1.000
    O11      O        0.21920    0.62550    0.52090    1.000
    O12      O        0.10840    0.66170    0.50440    1.000
    Cd3      Cd       0.40005    0.08184    0.99328    1.000
    C47      C        0.39210    0.05150    0.12080    1.000
    C48      C        0.38450    0.02720    0.18190    1.000
    C49      C        0.36190    0.98110    0.17790    1.000
    H49      H        0.34740    0.96600    0.13580    1.000
    C50      C        0.36040    0.95690    0.23570    1.000
    H50      H        0.34670    0.92560    0.23210    1.000
    C51      C        0.37870    0.97860    0.29890    1.000
    C52      C        0.40010    0.02430    0.30160    1.000
    H51      H        0.41260    0.03960    0.34340    1.000
    C53      C        0.40410    0.04870    0.24520    1.000
    H52      H        0.41990    0.07970    0.24960    1.000
    C54      C        0.37730    0.95030    0.36030    1.000
    C55      C        0.32090    0.16190    0.98850    1.000
    C56      C        0.28400    0.20740    0.99390    1.000
    C57      C        0.20630    0.21480    0.96350    1.000
    H53      H        0.17620    0.19080    0.93820    1.000
    C58      C        0.32870    0.24280    0.03050    1.000
    H54      H        0.38150    0.23860    0.05100    1.000
    C59      C        0.55890    0.13450    0.04220    1.000
    H55      H        0.52870    0.15320    0.06080    1.000
    C60      C        0.63210    0.14990    0.04620    1.000
    H56      H        0.64970    0.17890    0.06490    1.000
    C61      C        0.67750    0.12160    0.02220    1.000
    C62      C        0.64970    0.07990    0.99370    1.000
    H57      H        0.67920    0.05970    0.97640    1.000
    C63      C        0.57750    0.06970    0.99190    1.000
    H58      H        0.55850    0.04100    0.97290    1.000
    C64      C        0.75990    0.13500    0.02480    1.000
    H59      H        0.78120    0.11030    0.00370    1.000
    H60      H        0.75790    0.16310    0.99820    1.000
    C65      C        0.89220    0.15310    0.10260    1.000
    H61      H        0.89770    0.18260    0.08140    1.000
    H62      H        0.91620    0.12870    0.08360    1.000
    C66      C        0.92790    0.15570    0.18090    1.000
    H63      H        0.92310    0.18730    0.19600    1.000
    H64      H        0.89920    0.13530    0.20200    1.000
    C67      C        0.01290    0.14160    0.20490    1.000
    H65      H        0.01910    0.11040    0.19050    1.000
    H66      H        0.03890    0.16300    0.18350    1.000
    C68      C        0.95780    0.14020    0.16730    1.000
    H67      H        0.96580    0.10680    0.17010    1.000
    H68      H        0.00560    0.15530    0.16760    1.000
    C69      C        0.93180    0.15740    0.22660    1.000
    H69      H        0.92290    0.19050    0.22340    1.000
    H70      H        0.88450    0.14160    0.22420    1.000
    N5       N        0.52990    0.09540    0.01400    1.000
    N6       N        0.81090    0.14270    0.09310    1.000
    H71      H        0.80850    0.11740    0.11840    1.000
    H72      H        0.79170    0.16660    0.11090    1.000
    O13      O        0.37080    0.03010    0.06460    1.000
    O14      O        0.41720    0.09160    0.12530    1.000
    O15      O        0.39480    0.97240    0.41460    1.000
    O16      O        0.36550    0.90780    0.35650    1.000
    O17      O        0.28080    0.12550    0.97910    1.000
    O18      O        0.39160    0.16170    0.99560    1.000
    Cd4      Cd       0.90005    0.58184    0.99328    1.000
    C70      C        0.89210    0.55150    0.12080    1.000
    C71      C        0.88450    0.52720    0.18190    1.000
    C72      C        0.86190    0.48110    0.17790    1.000
    H73      H        0.84740    0.46600    0.13580    1.000
    C73      C        0.86040    0.45690    0.23570    1.000
    H74      H        0.84670    0.42560    0.23210    1.000
    C74      C        0.87870    0.47860    0.29890    1.000
    C75      C        0.90010    0.52430    0.30160    1.000
    H75      H        0.91260    0.53960    0.34340    1.000
    C76      C        0.90410    0.54870    0.24520    1.000
    H76      H        0.91990    0.57970    0.24960    1.000
    C77      C        0.87730    0.45030    0.36030    1.000
    C78      C        0.82090    0.66190    0.98850    1.000
    C79      C        0.78400    0.70740    0.99390    1.000
    C80      C        0.70630    0.71480    0.96350    1.000
    H77      H        0.67620    0.69080    0.93820    1.000
    C81      C        0.82870    0.74280    0.03050    1.000
    H78      H        0.88150    0.73860    0.05100    1.000
    C82      C        0.05890    0.63450    0.04220    1.000
    H79      H        0.02870    0.65320    0.06080    1.000
    C83      C        0.13210    0.64990    0.04620    1.000
    H80      H        0.14970    0.67890    0.06490    1.000
    C84      C        0.17750    0.62160    0.02220    1.000
    C85      C        0.14970    0.57990    0.99370    1.000
    H81      H        0.17920    0.55970    0.97640    1.000
    C86      C        0.07750    0.56970    0.99190    1.000
    H82      H        0.05850    0.54100    0.97290    1.000
    C87      C        0.25990    0.63500    0.02480    1.000
    H83      H        0.28120    0.61030    0.00370    1.000
    H84      H        0.25790    0.66310    0.99820    1.000
    C88      C        0.39220    0.65310    0.10260    1.000
    H85      H        0.39770    0.68260    0.08140    1.000
    H86      H        0.41620    0.62870    0.08360    1.000
    C89      C        0.42790    0.65570    0.18090    1.000
    H87      H        0.42310    0.68730    0.19600    1.000
    H88      H        0.39920    0.63530    0.20200    1.000
    C90      C        0.51290    0.64160    0.20490    1.000
    H89      H        0.51910    0.61040    0.19050    1.000
    H90      H        0.53890    0.66300    0.18350    1.000
    C91      C        0.45780    0.64020    0.16730    1.000
    H91      H        0.46580    0.60680    0.17010    1.000
    H92      H        0.50560    0.65530    0.16760    1.000
    C92      C        0.43180    0.65740    0.22660    1.000
    H93      H        0.42290    0.69050    0.22340    1.000
    H94      H        0.38450    0.64160    0.22420    1.000
    N7       N        0.02990    0.59540    0.01400    1.000
    N8       N        0.31090    0.64270    0.09310    1.000
    H95      H        0.30850    0.61740    0.11840    1.000
    H96      H        0.29170    0.66660    0.11090    1.000
    O19      O        0.87080    0.53010    0.06460    1.000
    O20      O        0.91720    0.59160    0.12530    1.000
    O21      O        0.89480    0.47240    0.41460    1.000
    O22      O        0.86550    0.40780    0.35650    1.000
    O23      O        0.78080    0.62550    0.97910    1.000
    O24      O        0.89160    0.66170    0.99560    1.000
    Cd5      Cd       0.40005    0.91816    0.49328    1.000
    C93      C        0.39210    0.94850    0.62080    1.000
    C94      C        0.38450    0.97280    0.68190    1.000
    C95      C        0.36190    0.01890    0.67790    1.000
    H97      H        0.34740    0.03400    0.63580    1.000
    C96      C        0.36040    0.04310    0.73570    1.000
    H98      H        0.34670    0.07440    0.73210    1.000
    C97      C        0.37870    0.02140    0.79890    1.000
    C98      C        0.40010    0.97570    0.80160    1.000
    H99      H        0.41260    0.96040    0.84340    1.000
    C99      C        0.40410    0.95130    0.74520    1.000
    H100     H        0.41990    0.92030    0.74960    1.000
    C100     C        0.37730    0.04970    0.86030    1.000
    C101     C        0.32090    0.83810    0.48850    1.000
    C102     C        0.28400    0.79260    0.49390    1.000
    C103     C        0.20630    0.78520    0.46350    1.000
    H101     H        0.17620    0.80920    0.43820    1.000
    C104     C        0.32870    0.75720    0.53050    1.000
    H102     H        0.38150    0.76140    0.55100    1.000
    C105     C        0.55890    0.86550    0.54220    1.000
    H103     H        0.52870    0.84680    0.56080    1.000
    C106     C        0.63210    0.85010    0.54620    1.000
    H104     H        0.64970    0.82110    0.56490    1.000
    C107     C        0.67750    0.87840    0.52220    1.000
    C108     C        0.64970    0.92010    0.49370    1.000
    H105     H        0.67920    0.94030    0.47640    1.000
    C109     C        0.57750    0.93030    0.49190    1.000
    H106     H        0.55850    0.95900    0.47290    1.000
    C110     C        0.75990    0.86500    0.52480    1.000
    H107     H        0.78120    0.88970    0.50370    1.000
    H108     H        0.75790    0.83690    0.49820    1.000
    C111     C        0.89220    0.84690    0.60260    1.000
    H109     H        0.89770    0.81740    0.58140    1.000
    H110     H        0.91620    0.87130    0.58360    1.000
    C112     C        0.92790    0.84430    0.68090    1.000
    H111     H        0.92310    0.81270    0.69600    1.000
    H112     H        0.89920    0.86470    0.70200    1.000
    C113     C        0.01290    0.85840    0.70490    1.000
    H113     H        0.01910    0.88960    0.69050    1.000
    H114     H        0.03890    0.83700    0.68350    1.000
    C114     C        0.95780    0.85980    0.66730    1.000
    H115     H        0.96580    0.89320    0.67010    1.000
    H116     H        0.00560    0.84470    0.66760    1.000
    C115     C        0.93180    0.84260    0.72660    1.000
    H117     H        0.92290    0.80950    0.72340    1.000
    H118     H        0.88450    0.85840    0.72420    1.000
    N9       N        0.52990    0.90460    0.51400    1.000
    N10      N        0.81090    0.85730    0.59310    1.000
    H119     H        0.80850    0.88260    0.61840    1.000
    H120     H        0.79170    0.83340    0.61090    1.000
    O25      O        0.37080    0.96990    0.56460    1.000
    O26      O        0.41720    0.90840    0.62530    1.000
    O27      O        0.39480    0.02760    0.91460    1.000
    O28      O        0.36550    0.09220    0.85650    1.000
    O29      O        0.28080    0.87450    0.47910    1.000
    O30      O        0.39160    0.83830    0.49560    1.000
    Cd6      Cd       0.90005    0.41816    0.49328    1.000
    C116     C        0.89210    0.44850    0.62080    1.000
    C117     C        0.88450    0.47280    0.68190    1.000
    C118     C        0.86190    0.51890    0.67790    1.000
    H121     H        0.84740    0.53400    0.63580    1.000
    C119     C        0.86040    0.54310    0.73570    1.000
    H122     H        0.84670    0.57440    0.73210    1.000
    C120     C        0.87870    0.52140    0.79890    1.000
    C121     C        0.90010    0.47570    0.80160    1.000
    H123     H        0.91260    0.46040    0.84340    1.000
    C122     C        0.90410    0.45130    0.74520    1.000
    H124     H        0.91990    0.42030    0.74960    1.000
    C123     C        0.87730    0.54970    0.86030    1.000
    C124     C        0.82090    0.33810    0.48850    1.000
    C125     C        0.78400    0.29260    0.49390    1.000
    C126     C        0.70630    0.28520    0.46350    1.000
    H125     H        0.67620    0.30920    0.43820    1.000
    C127     C        0.82870    0.25720    0.53050    1.000
    H126     H        0.88150    0.26140    0.55100    1.000
    C128     C        0.05890    0.36550    0.54220    1.000
    H127     H        0.02870    0.34680    0.56080    1.000
    C129     C        0.13210    0.35010    0.54620    1.000
    H128     H        0.14970    0.32110    0.56490    1.000
    C130     C        0.17750    0.37840    0.52220    1.000
    C131     C        0.14970    0.42010    0.49370    1.000
    H129     H        0.17920    0.44030    0.47640    1.000
    C132     C        0.07750    0.43030    0.49190    1.000
    H130     H        0.05850    0.45900    0.47290    1.000
    C133     C        0.25990    0.36500    0.52480    1.000
    H131     H        0.28120    0.38970    0.50370    1.000
    H132     H        0.25790    0.33690    0.49820    1.000
    C134     C        0.39220    0.34690    0.60260    1.000
    H133     H        0.39770    0.31740    0.58140    1.000
    H134     H        0.41620    0.37130    0.58360    1.000
    C135     C        0.42790    0.34430    0.68090    1.000
    H135     H        0.42310    0.31270    0.69600    1.000
    H136     H        0.39920    0.36470    0.70200    1.000
    C136     C        0.51290    0.35840    0.70490    1.000
    H137     H        0.51910    0.38960    0.69050    1.000
    H138     H        0.53890    0.33700    0.68350    1.000
    C137     C        0.45780    0.35980    0.66730    1.000
    H139     H        0.46580    0.39320    0.67010    1.000
    H140     H        0.50560    0.34470    0.66760    1.000
    C138     C        0.43180    0.34260    0.72660    1.000
    H141     H        0.42290    0.30950    0.72340    1.000
    H142     H        0.38450    0.35840    0.72420    1.000
    N11      N        0.02990    0.40460    0.51400    1.000
    N12      N        0.31090    0.35730    0.59310    1.000
    H143     H        0.30850    0.38260    0.61840    1.000
    H144     H        0.29170    0.33340    0.61090    1.000
    O31      O        0.87080    0.46990    0.56460    1.000
    O32      O        0.91720    0.40840    0.62530    1.000
    O33      O        0.89480    0.52760    0.91460    1.000
    O34      O        0.86550    0.59220    0.85650    1.000
    O35      O        0.78080    0.37450    0.47910    1.000
    O36      O        0.89160    0.33830    0.49560    1.000
    Cd7      Cd       0.59995    0.91816    0.00672    1.000
    C139     C        0.60790    0.94850    0.87920    1.000
    C140     C        0.61550    0.97280    0.81810    1.000
    C141     C        0.63810    0.01890    0.82210    1.000
    H145     H        0.65260    0.03400    0.86420    1.000
    C142     C        0.63960    0.04310    0.76430    1.000
    H146     H        0.65330    0.07440    0.76790    1.000
    C143     C        0.62130    0.02140    0.70110    1.000
    C144     C        0.59990    0.97570    0.69840    1.000
    H147     H        0.58740    0.96040    0.65660    1.000
    C145     C        0.59590    0.95130    0.75480    1.000
    H148     H        0.58010    0.92030    0.75040    1.000
    C146     C        0.62270    0.04970    0.63970    1.000
    C147     C        0.67910    0.83810    0.01150    1.000
    C148     C        0.71600    0.79260    0.00610    1.000
    C149     C        0.79370    0.78520    0.03650    1.000
    H149     H        0.82380    0.80920    0.06180    1.000
    C150     C        0.67130    0.75720    0.96950    1.000
    H150     H        0.61850    0.76140    0.94900    1.000
    C151     C        0.44110    0.86550    0.95780    1.000
    H151     H        0.47130    0.84680    0.93920    1.000
    C152     C        0.36790    0.85010    0.95380    1.000
    H152     H        0.35030    0.82110    0.93510    1.000
    C153     C        0.32250    0.87840    0.97780    1.000
    C154     C        0.35030    0.92010    0.00630    1.000
    H153     H        0.32080    0.94030    0.02360    1.000
    C155     C        0.42250    0.93030    0.00810    1.000
    H154     H        0.44150    0.95900    0.02710    1.000
    C156     C        0.24010    0.86500    0.97520    1.000
    H155     H        0.21880    0.88970    0.99630    1.000
    H156     H        0.24210    0.83690    0.00180    1.000
    C157     C        0.10780    0.84690    0.89740    1.000
    H157     H        0.10230    0.81740    0.91860    1.000
    H158     H        0.08380    0.87130    0.91640    1.000
    C158     C        0.07210    0.84430    0.81910    1.000
    H159     H        0.07690    0.81270    0.80400    1.000
    H160     H        0.10080    0.86470    0.79800    1.000
    C159     C        0.98710    0.85840    0.79510    1.000
    H161     H        0.98090    0.88960    0.80950    1.000
    H162     H        0.96110    0.83700    0.81650    1.000
    C160     C        0.04220    0.85980    0.83270    1.000
    H163     H        0.03420    0.89320    0.82990    1.000
    H164     H        0.99440    0.84470    0.83240    1.000
    C161     C        0.06820    0.84260    0.77340    1.000
    H165     H        0.07710    0.80950    0.77660    1.000
    H166     H        0.11550    0.85840    0.77580    1.000
    N13      N        0.47010    0.90460    0.98600    1.000
    N14      N        0.18910    0.85730    0.90690    1.000
    H167     H        0.19150    0.88260    0.88160    1.000
    H168     H        0.20830    0.83340    0.88910    1.000
    O37      O        0.62920    0.96990    0.93540    1.000
    O38      O        0.58280    0.90840    0.87470    1.000
    O39      O        0.60520    0.02760    0.58540    1.000
    O40      O        0.63450    0.09220    0.64350    1.000
    O41      O        0.71920    0.87450    0.02090    1.000
    O42      O        0.60840    0.83830    0.00440    1.000
    Cd8      Cd       0.09995    0.41816    0.00672    1.000
    C162     C        0.10790    0.44850    0.87920    1.000
    C163     C        0.11550    0.47280    0.81810    1.000
    C164     C        0.13810    0.51890    0.82210    1.000
    H169     H        0.15260    0.53400    0.86420    1.000
    C165     C        0.13960    0.54310    0.76430    1.000
    H170     H        0.15330    0.57440    0.76790    1.000
    C166     C        0.12130    0.52140    0.70110    1.000
    C167     C        0.09990    0.47570    0.69840    1.000
    H171     H        0.08740    0.46040    0.65660    1.000
    C168     C        0.09590    0.45130    0.75480    1.000
    H172     H        0.08010    0.42030    0.75040    1.000
    C169     C        0.12270    0.54970    0.63970    1.000
    C170     C        0.17910    0.33810    0.01150    1.000
    C171     C        0.21600    0.29260    0.00610    1.000
    C172     C        0.29370    0.28520    0.03650    1.000
    H173     H        0.32380    0.30920    0.06180    1.000
    C173     C        0.17130    0.25720    0.96950    1.000
    H174     H        0.11850    0.26140    0.94900    1.000
    C174     C        0.94110    0.36550    0.95780    1.000
    H175     H        0.97130    0.34680    0.93920    1.000
    C175     C        0.86790    0.35010    0.95380    1.000
    H176     H        0.85030    0.32110    0.93510    1.000
    C176     C        0.82250    0.37840    0.97780    1.000
    C177     C        0.85030    0.42010    0.00630    1.000
    H177     H        0.82080    0.44030    0.02360    1.000
    C178     C        0.92250    0.43030    0.00810    1.000
    H178     H        0.94150    0.45900    0.02710    1.000
    C179     C        0.74010    0.36500    0.97520    1.000
    H179     H        0.71880    0.38970    0.99630    1.000
    H180     H        0.74210    0.33690    0.00180    1.000
    C180     C        0.60780    0.34690    0.89740    1.000
    H181     H        0.60230    0.31740    0.91860    1.000
    H182     H        0.58380    0.37130    0.91640    1.000
    C181     C        0.57210    0.34430    0.81910    1.000
    H183     H        0.57690    0.31270    0.80400    1.000
    H184     H        0.60080    0.36470    0.79800    1.000
    C182     C        0.48710    0.35840    0.79510    1.000
    H185     H        0.48090    0.38960    0.80950    1.000
    H186     H        0.46110    0.33700    0.81650    1.000
    C183     C        0.54220    0.35980    0.83270    1.000
    H187     H        0.53420    0.39320    0.82990    1.000
    H188     H        0.49440    0.34470    0.83240    1.000
    C184     C        0.56820    0.34260    0.77340    1.000
    H189     H        0.57710    0.30950    0.77660    1.000
    H190     H        0.61550    0.35840    0.77580    1.000
    N15      N        0.97010    0.40460    0.98600    1.000
    N16      N        0.68910    0.35730    0.90690    1.000
    H191     H        0.69150    0.38260    0.88160    1.000
    H192     H        0.70830    0.33340    0.88910    1.000
    O43      O        0.12920    0.46990    0.93540    1.000
    O44      O        0.08280    0.40840    0.87470    1.000
    O45      O        0.10520    0.52760    0.58540    1.000
    O46      O        0.13450    0.59220    0.64350    1.000
    O47      O        0.21920    0.37450    0.02090    1.000
    O48      O        0.10840    0.33830    0.00440    1.000
