# CIF file generated by openbabel 3.1.0, see https://openbabel.org
data_I
_chemical_name_common 'image0'
_cell_length_a 15.6825
_cell_length_b 39.503
_cell_length_c 17.2763
_cell_angle_alpha 90
_cell_angle_beta 93.791
_cell_angle_gamma 90
_space_group_name_H-M_alt 'P 1'
_space_group_name_Hall 'P 1'
loop_
    _symmetry_equiv_pos_as_xyz
    x,y,z
loop_
    _atom_site_label
    _atom_site_type_symbol
    _atom_site_fract_x
    _atom_site_fract_y
    _atom_site_fract_z
    _atom_site_occupancy
    Mo1      Mo       0.79250    0.58429    0.97951    1.000
    Mo2      Mo       0.83229    0.62991    0.08517    1.000
    O1       O        0.74440    0.62880    0.00140    1.000
    O2       O        0.69610    0.57960    0.89170    1.000
    O3       O        0.85410    0.58150    0.08050    1.000
    O4       O        0.80310    0.53200    0.96690    1.000
    O5       O        0.68620    0.56790    0.04720    1.000
    O6       O        0.71360    0.60910    0.15710    1.000
    O7       O        0.88480    0.62930    0.19460    1.000
    O8       O        0.78200    0.67600    0.11500    1.000
    Co1      Co       0.64095    0.65730    0.97130    1.000
    P1       P        0.64400    0.60042    0.83220    1.000
    Co2      Co       0.88027    0.54585    0.16409    1.000
    P2       P        0.85090    0.50114    0.99930    1.000
    P3       P        0.68610    0.57171    0.13500    1.000
    Mo3      Mo       0.65877    0.63032    0.27394    1.000
    P4       P        0.86930    0.61428    0.27430    1.000
    P5       P        0.69380    0.68736    0.13940    1.000
    O9       O        0.60430    0.63160    0.86970    1.000
    O10      O        0.62330    0.67440    0.08470    1.000
    O11      O        0.54310    0.68810    0.92940    1.000
    N1       N        0.22700    0.80670    0.42380    1.000
    O12      O        0.57940    0.57810    0.79020    1.000
    O13      O        0.70550    0.61430    0.77130    1.000
    O14      O        0.87430    0.50470    0.08780    1.000
    O15      O        0.74400    0.54320    0.17800    1.000
    O16      O        0.92910    0.50520    0.23330    1.000
    O17      O        0.86120    0.57510    0.26770    1.000
    O18      O        0.79330    0.47120    0.98220    1.000
    O19      O        0.93410    0.49610    0.95840    1.000
    O20      O        0.59180    0.56720    0.15140    1.000
    O21      O        0.78660    0.62850    0.30530    1.000
    Mo4      Mo       0.53600    0.58621    0.25648    1.000
    O22      O        0.65450    0.58280    0.29880    1.000
    O23      O        0.55420    0.63060    0.20930    1.000
    O24      O        0.68580    0.67650    0.22440    1.000
    O25      O        0.94290    0.62240    0.33170    1.000
    O26      O        0.68890    0.72720    0.13680    1.000
    Co3      Co       0.48335    0.65662    0.84650    1.000
    Co4      Co       0.50460    0.65829    0.11820    1.000
    P6       P        0.49630    0.71258    0.98340    1.000
    Mo5      Mo       0.46323    0.57830    0.72573    1.000
    H1       H        0.72790    0.59840    0.75000    1.000
    Co5      Co       0.87795    0.46583    0.17013    1.000
    Co6      Co       0.74970    0.54654    0.30920    1.000
    P7       P        0.92760    0.50537    0.32320    1.000
    Mo6      Mo       0.79235    0.41869    0.99732    1.000
    O27      O        0.52340    0.53490    0.27040    1.000
    O28      O        0.42790    0.58140    0.18290    1.000
    H2       H        0.94800    0.64300    0.33580    1.000
    H3       H        0.64980    0.73310    0.10590    1.000
    O29      O        0.44400    0.62500    0.75930    1.000
    O30      O        0.41900    0.62150    0.92500    1.000
    O31      O        0.35960    0.68090    0.87340    1.000
    N2       N        0.53140    0.69030    0.76390    1.000
    O32      O        0.38790    0.63370    0.10150    1.000
    O33      O        0.44580    0.68970    0.03340    1.000
    N3       N        0.45990    0.69340    0.20100    1.000
    O34      O        0.43460    0.73540    0.93140    1.000
    O35      O        0.55460    0.73710    0.02960    1.000
    O36      O        0.47370    0.52640    0.72440    1.000
    Mo7      Mo       0.33502    0.61974    0.70052    1.000
    O37      O        0.42010    0.56800    0.83830    1.000
    O38      O        0.34280    0.57050    0.69320    1.000
    O39      O        0.85000    0.42590    0.09810    1.000
    O40      O        0.84440    0.43940    0.26890    1.000
    O41      O        0.83260    0.50670    0.34160    1.000
    O42      O        0.65900    0.50540    0.32020    1.000
    O43      O        0.97910    0.47680    0.36070    1.000
    O44      O        0.97390    0.53760    0.35600    1.000
    Mo8      Mo       0.83685    0.37753    0.11124    1.000
    O45      O        0.75400    0.37260    0.02420    1.000
    O46      O        0.70490    0.41940    0.90590    1.000
    O47      O        0.67740    0.43170    0.05690    1.000
    P8       P        0.56190    0.50466    0.31510    1.000
    P9       P        0.35460    0.60323    0.14560    1.000
    Co7      Co       0.34786    0.65816    0.99200    1.000
    P10      P        0.36450    0.59143    0.88240    1.000
    P11      P        0.28380    0.68386    0.81460    1.000
    C1       C        0.57390    0.68040    0.70560    1.000
    C2       C        0.53600    0.72450    0.77600    1.000
    C3       C        0.41680    0.68410    0.26260    1.000
    C4       C        0.45900    0.72730    0.18800    1.000
    H4       H        0.40140    0.72340    0.90500    1.000
    H5       H        0.58950    0.72650    0.05740    1.000
    O48      O        0.30280    0.66640    0.73800    1.000
    O49      O        0.29060    0.60620    0.82650    1.000
    O50      O        0.20480    0.61490    0.66900    1.000
    Co8      Co       0.25270    0.53346    0.68283    1.000
    P12      P        0.86900    0.40319    0.29350    1.000
    H6       H        0.95770    0.45860    0.34690    1.000
    H7       H        0.95040    0.55450    0.33690    1.000
    O51      O        0.79430    0.33190    0.14950    1.000
    O52      O        0.89350    0.38330    0.22160    1.000
    O53      O        0.52920    0.50370    0.39850    1.000
    O54      O        0.30450    0.61750    0.21160    1.000
    N4       N        0.76330    0.80590    0.53900    1.000
    O55      O        0.26570    0.72130    0.79940    1.000
    C5       C        0.62300    0.70100    0.66350    1.000
    H8       H        0.57010    0.65760    0.69160    1.000
    H9       H        0.50780    0.73370    0.81650    1.000
    C6       C        0.57900    0.74550    0.73160    1.000
    H10      H        0.41610    0.66120    0.27490    1.000
    C7       C        0.37630    0.70440    0.30600    1.000
    C8       C        0.41590    0.75140    0.23020    1.000
    H11      H        0.49010    0.73520    0.14700    1.000
    N5       N        0.24500    0.54340    0.56250    1.000
    O56      O        0.94460    0.40280    0.35370    1.000
    H12      H        0.55170    0.51900    0.42450    1.000
    H13      H        0.26490    0.62920    0.19330    1.000
    H14      H        0.30690    0.73000    0.78040    1.000
    C9       C        0.62710    0.73510    0.67450    1.000
    H15      H        0.65570    0.69130    0.62600    1.000
    H16      H        0.57460    0.76860    0.74070    1.000
    C10      C        0.37140    0.73860    0.29070    1.000
    H17      H        0.35000    0.69580    0.34840    1.000
    H18      H        0.41700    0.77440    0.21870    1.000
    C11      C        0.31930    0.54630    0.52710    1.000
    C12      C        0.17460    0.53450    0.51850    1.000
    H19      H        0.96150    0.42220    0.36170    1.000
    C13      C        0.67300    0.75960    0.62810    1.000
    C14      C        0.32520    0.76210    0.33880    1.000
    H20      H        0.36900    0.55260    0.55590    1.000
    C15      C        0.32200    0.54000    0.44710    1.000
    C16      C        0.17570    0.52730    0.43950    1.000
    H21      H        0.12290    0.53300    0.54180    1.000
    C17      C        0.66400    0.79440    0.63990    1.000
    C18      C        0.72600    0.74790    0.57400    1.000
    C19      C        0.33560    0.79680    0.33400    1.000
    C20      C        0.26370    0.75100    0.38600    1.000
    C21      C        0.25370    0.52890    0.40260    1.000
    H22      H        0.37300    0.54360    0.42390    1.000
    H23      H        0.12540    0.52140    0.41110    1.000
    C22      C        0.70900    0.81600    0.58960    1.000
    H24      H        0.63110    0.80310    0.67810    1.000
    C23      C        0.76710    0.77250    0.52600    1.000
    H25      H        0.73470    0.72480    0.56800    1.000
    C24      C        0.28740    0.81800    0.37990    1.000
    H26      H        0.37390    0.80600    0.30110    1.000
    C25      C        0.21690    0.77410    0.42800    1.000
    H27      H        0.25310    0.72790    0.39010    1.000
    H28      H        0.69940    0.83920    0.59290    1.000
    H29      H        0.79740    0.76470    0.48560    1.000
    H30      H        0.29840    0.84110    0.37940    1.000
    H31      H        0.17680    0.76570    0.46020    1.000
    H32      H        0.97520    0.49910    0.98960    1.000
    Mo9      Mo       0.70750    0.08429    0.52049    1.000
    Mo10     Mo       0.66771    0.12991    0.41483    1.000
    O57      O        0.75560    0.12880    0.49860    1.000
    O58      O        0.80390    0.07960    0.60830    1.000
    O59      O        0.64590    0.08150    0.41950    1.000
    O60      O        0.69690    0.03200    0.53310    1.000
    O61      O        0.81380    0.06790    0.45280    1.000
    O62      O        0.78640    0.10910    0.34290    1.000
    O63      O        0.61520    0.12930    0.30540    1.000
    O64      O        0.71800    0.17600    0.38500    1.000
    Co9      Co       0.85905    0.15730    0.52870    1.000
    P13      P        0.85600    0.10042    0.66780    1.000
    Co10     Co       0.61973    0.04585    0.33591    1.000
    P14      P        0.64910    0.00114    0.50070    1.000
    P15      P        0.81390    0.07171    0.36500    1.000
    Mo11     Mo       0.84123    0.13032    0.22606    1.000
    P16      P        0.63070    0.11428    0.22570    1.000
    P17      P        0.80620    0.18736    0.36060    1.000
    O65      O        0.89570    0.13160    0.63030    1.000
    O66      O        0.87670    0.17440    0.41530    1.000
    O67      O        0.95690    0.18810    0.57060    1.000
    N6       N        0.27300    0.30670    0.07620    1.000
    O68      O        0.92060    0.07810    0.70980    1.000
    O69      O        0.79450    0.11430    0.72870    1.000
    O70      O        0.62570    0.00470    0.41220    1.000
    O71      O        0.75600    0.04320    0.32200    1.000
    O72      O        0.57090    0.00520    0.26670    1.000
    O73      O        0.63880    0.07510    0.23230    1.000
    O74      O        0.70670    0.97120    0.51780    1.000
    O75      O        0.56590    0.99610    0.54160    1.000
    O76      O        0.90820    0.06720    0.34860    1.000
    O77      O        0.71340    0.12850    0.19470    1.000
    Mo12     Mo       0.96400    0.08621    0.24352    1.000
    O78      O        0.84550    0.08280    0.20120    1.000
    O79      O        0.94580    0.13060    0.29070    1.000
    O80      O        0.81420    0.17650    0.27560    1.000
    O81      O        0.55710    0.12240    0.16830    1.000
    O82      O        0.81110    0.22720    0.36320    1.000
    Co11     Co       0.01665    0.15662    0.65350    1.000
    Co12     Co       0.99540    0.15829    0.38180    1.000
    P18      P        0.00370    0.21258    0.51660    1.000
    Mo13     Mo       0.03677    0.07830    0.77427    1.000
    H33      H        0.77210    0.09840    0.75000    1.000
    Co13     Co       0.62205    0.96583    0.32987    1.000
    Co14     Co       0.75030    0.04654    0.19080    1.000
    P19      P        0.57240    0.00537    0.17680    1.000
    Mo14     Mo       0.70765    0.91869    0.50268    1.000
    O83      O        0.97660    0.03490    0.22960    1.000
    O84      O        0.07210    0.08140    0.31710    1.000
    H34      H        0.55200    0.14300    0.16420    1.000
    H35      H        0.85020    0.23310    0.39410    1.000
    O85      O        0.05600    0.12500    0.74070    1.000
    O86      O        0.08100    0.12150    0.57500    1.000
    O87      O        0.14040    0.18090    0.62660    1.000
    N7       N        0.96860    0.19030    0.73610    1.000
    O88      O        0.11210    0.13370    0.39850    1.000
    O89      O        0.05420    0.18970    0.46660    1.000
    N8       N        0.04010    0.19340    0.29900    1.000
    O90      O        0.06540    0.23540    0.56860    1.000
    O91      O        0.94540    0.23710    0.47040    1.000
    O92      O        0.02630    0.02640    0.77560    1.000
    Mo15     Mo       0.16498    0.11974    0.79948    1.000
    O93      O        0.07990    0.06800    0.66170    1.000
    O94      O        0.15720    0.07050    0.80680    1.000
    O95      O        0.65000    0.92590    0.40190    1.000
    O96      O        0.65560    0.93940    0.23110    1.000
    O97      O        0.66740    0.00670    0.15840    1.000
    O98      O        0.84100    0.00540    0.17980    1.000
    O99      O        0.52090    0.97680    0.13930    1.000
    O100     O        0.52610    0.03760    0.14400    1.000
    Mo16     Mo       0.66315    0.87753    0.38876    1.000
    O101     O        0.74600    0.87260    0.47580    1.000
    O102     O        0.79510    0.91940    0.59410    1.000
    O103     O        0.82260    0.93170    0.44310    1.000
    P20      P        0.93810    0.00466    0.18490    1.000
    P21      P        0.14540    0.10323    0.35440    1.000
    Co15     Co       0.15214    0.15816    0.50800    1.000
    P22      P        0.13550    0.09143    0.61760    1.000
    P23      P        0.21620    0.18386    0.68540    1.000
    C26      C        0.92610    0.18040    0.79440    1.000
    C27      C        0.96400    0.22450    0.72400    1.000
    C28      C        0.08320    0.18410    0.23740    1.000
    C29      C        0.04100    0.22730    0.31200    1.000
    H36      H        0.09860    0.22340    0.59500    1.000
    H37      H        0.91050    0.22650    0.44260    1.000
    O104     O        0.19720    0.16640    0.76200    1.000
    O105     O        0.20940    0.10620    0.67350    1.000
    O106     O        0.29520    0.11490    0.83100    1.000
    Co16     Co       0.24730    0.03346    0.81717    1.000
    P24      P        0.63100    0.90319    0.20650    1.000
    H38      H        0.54230    0.95860    0.15310    1.000
    H39      H        0.54960    0.05450    0.16310    1.000
    O107     O        0.70570    0.83190    0.35050    1.000
    O108     O        0.60650    0.88330    0.27840    1.000
    O109     O        0.97080    0.00370    0.10150    1.000
    O110     O        0.19550    0.11750    0.28840    1.000
    N9       N        0.73670    0.30590    0.96100    1.000
    O111     O        0.23430    0.22130    0.70060    1.000
    C30      C        0.87700    0.20100    0.83650    1.000
    H40      H        0.92990    0.15760    0.80840    1.000
    H41      H        0.99220    0.23370    0.68350    1.000
    C31      C        0.92100    0.24550    0.76840    1.000
    H42      H        0.08390    0.16120    0.22510    1.000
    C32      C        0.12370    0.20440    0.19400    1.000
    C33      C        0.08410    0.25140    0.26980    1.000
    H43      H        0.00990    0.23520    0.35300    1.000
    N10      N        0.25500    0.04340    0.93750    1.000
    O112     O        0.55540    0.90280    0.14630    1.000
    H44      H        0.94830    0.01900    0.07550    1.000
    H45      H        0.23510    0.12920    0.30670    1.000
    H46      H        0.19310    0.23000    0.71960    1.000
    C34      C        0.87290    0.23510    0.82550    1.000
    H47      H        0.84430    0.19130    0.87400    1.000
    H48      H        0.92540    0.26860    0.75930    1.000
    C35      C        0.12860    0.23860    0.20930    1.000
    H49      H        0.15000    0.19580    0.15160    1.000
    H50      H        0.08300    0.27440    0.28130    1.000
    C36      C        0.18070    0.04630    0.97290    1.000
    C37      C        0.32540    0.03450    0.98150    1.000
    H51      H        0.53850    0.92220    0.13830    1.000
    C38      C        0.82700    0.25960    0.87190    1.000
    C39      C        0.17480    0.26210    0.16120    1.000
    H52      H        0.13100    0.05260    0.94410    1.000
    C40      C        0.17800    0.04000    0.05290    1.000
    C41      C        0.32430    0.02730    0.06050    1.000
    H53      H        0.37710    0.03300    0.95820    1.000
    C42      C        0.83600    0.29440    0.86010    1.000
    C43      C        0.77400    0.24790    0.92600    1.000
    C44      C        0.16440    0.29680    0.16600    1.000
    C45      C        0.23630    0.25100    0.11400    1.000
    C46      C        0.24630    0.02890    0.09740    1.000
    H54      H        0.12700    0.04360    0.07610    1.000
    H55      H        0.37460    0.02140    0.08890    1.000
    C47      C        0.79100    0.31600    0.91040    1.000
    H56      H        0.86890    0.30310    0.82190    1.000
    C48      C        0.73290    0.27250    0.97400    1.000
    H57      H        0.76530    0.22480    0.93200    1.000
    C49      C        0.21260    0.31800    0.12010    1.000
    H58      H        0.12610    0.30600    0.19890    1.000
    C50      C        0.28310    0.27410    0.07200    1.000
    H59      H        0.24690    0.22790    0.10990    1.000
    H60      H        0.80060    0.33920    0.90710    1.000
    H61      H        0.70260    0.26470    0.01440    1.000
    H62      H        0.20160    0.34110    0.12060    1.000
    H63      H        0.32320    0.26570    0.03980    1.000
    H64      H        0.52480    0.99910    0.51040    1.000
    Mo17     Mo       0.20750    0.41571    0.02049    1.000
    Mo18     Mo       0.16771    0.37009    0.91483    1.000
    O113     O        0.25560    0.37120    0.99860    1.000
    O114     O        0.30390    0.42040    0.10830    1.000
    O115     O        0.14590    0.41850    0.91950    1.000
    O116     O        0.19690    0.46800    0.03310    1.000
    O117     O        0.31380    0.43210    0.95280    1.000
    O118     O        0.28640    0.39090    0.84290    1.000
    O119     O        0.11520    0.37070    0.80540    1.000
    O120     O        0.21800    0.32400    0.88500    1.000
    Co17     Co       0.35905    0.34270    0.02870    1.000
    P25      P        0.35600    0.39958    0.16780    1.000
    Co18     Co       0.11973    0.45415    0.83591    1.000
    P26      P        0.14910    0.49886    0.00070    1.000
    P27      P        0.31390    0.42829    0.86500    1.000
    Mo19     Mo       0.34123    0.36968    0.72606    1.000
    P28      P        0.13070    0.38572    0.72570    1.000
    P29      P        0.30620    0.31264    0.86060    1.000
    O121     O        0.39570    0.36840    0.13030    1.000
    O122     O        0.37670    0.32560    0.91530    1.000
    O123     O        0.45690    0.31190    0.07060    1.000
    N11      N        0.77300    0.19330    0.57620    1.000
    O124     O        0.42060    0.42190    0.20980    1.000
    O125     O        0.29450    0.38570    0.22870    1.000
    O126     O        0.12570    0.49530    0.91220    1.000
    O127     O        0.25600    0.45680    0.82200    1.000
    O128     O        0.07090    0.49480    0.76670    1.000
    O129     O        0.13880    0.42490    0.73230    1.000
    O130     O        0.20670    0.52880    0.01780    1.000
    O131     O        0.06590    0.50390    0.04160    1.000
    O132     O        0.40820    0.43280    0.84860    1.000
    O133     O        0.21340    0.37150    0.69470    1.000
    Mo20     Mo       0.46400    0.41379    0.74352    1.000
    O134     O        0.34550    0.41720    0.70120    1.000
    O135     O        0.44580    0.36940    0.79070    1.000
    O136     O        0.31420    0.32350    0.77560    1.000
    O137     O        0.05710    0.37760    0.66830    1.000
    O138     O        0.31110    0.27280    0.86320    1.000
    Co19     Co       0.51665    0.34338    0.15350    1.000
    Co20     Co       0.49540    0.34171    0.88180    1.000
    P30      P        0.50370    0.28742    0.01660    1.000
    Mo21     Mo       0.53677    0.42170    0.27427    1.000
    H65      H        0.27210    0.40160    0.25000    1.000
    Co21     Co       0.12205    0.53417    0.82987    1.000
    Co22     Co       0.25030    0.45346    0.69080    1.000
    P31      P        0.07240    0.49463    0.67680    1.000
    Mo22     Mo       0.20765    0.58131    0.00268    1.000
    O139     O        0.47660    0.46510    0.72960    1.000
    O140     O        0.57210    0.41860    0.81710    1.000
    H66      H        0.05200    0.35700    0.66420    1.000
    H67      H        0.35020    0.26690    0.89410    1.000
    O141     O        0.55600    0.37500    0.24070    1.000
    O142     O        0.58100    0.37850    0.07500    1.000
    O143     O        0.64040    0.31910    0.12660    1.000
    N12      N        0.46860    0.30970    0.23610    1.000
    O144     O        0.61210    0.36630    0.89850    1.000
    O145     O        0.55420    0.31030    0.96660    1.000
    N13      N        0.54010    0.30660    0.79900    1.000
    O146     O        0.56540    0.26460    0.06860    1.000
    O147     O        0.44540    0.26290    0.97040    1.000
    O148     O        0.52630    0.47360    0.27560    1.000
    Mo23     Mo       0.66498    0.38026    0.29948    1.000
    O149     O        0.57990    0.43200    0.16170    1.000
    O150     O        0.65720    0.42950    0.30680    1.000
    O151     O        0.15000    0.57410    0.90190    1.000
    O152     O        0.15560    0.56060    0.73110    1.000
    O153     O        0.16740    0.49330    0.65840    1.000
    O154     O        0.34100    0.49460    0.67980    1.000
    O155     O        0.02090    0.52320    0.63930    1.000
    O156     O        0.02610    0.46240    0.64400    1.000
    Mo24     Mo       0.16315    0.62247    0.88876    1.000
    O157     O        0.24600    0.62740    0.97580    1.000
    O158     O        0.29510    0.58060    0.09410    1.000
    O159     O        0.32260    0.56830    0.94310    1.000
    P32      P        0.43810    0.49534    0.68490    1.000
    P33      P        0.64540    0.39677    0.85440    1.000
    Co23     Co       0.65214    0.34184    0.00800    1.000
    P34      P        0.63550    0.40857    0.11760    1.000
    P35      P        0.71620    0.31614    0.18540    1.000
    C51      C        0.42610    0.31960    0.29440    1.000
    C52      C        0.46400    0.27550    0.22400    1.000
    C53      C        0.58320    0.31590    0.73740    1.000
    C54      C        0.54100    0.27270    0.81200    1.000
    H68      H        0.59860    0.27660    0.09500    1.000
    H69      H        0.41050    0.27350    0.94260    1.000
    O160     O        0.69720    0.33360    0.26200    1.000
    O161     O        0.70940    0.39380    0.17350    1.000
    O162     O        0.79520    0.38510    0.33100    1.000
    Co24     Co       0.74730    0.46654    0.31717    1.000
    P36      P        0.13100    0.59681    0.70650    1.000
    H70      H        0.04230    0.54140    0.65310    1.000
    H71      H        0.04960    0.44550    0.66310    1.000
    O163     O        0.20570    0.66810    0.85050    1.000
    O164     O        0.10650    0.61670    0.77840    1.000
    O165     O        0.47080    0.49630    0.60150    1.000
    O166     O        0.69550    0.38250    0.78840    1.000
    N14      N        0.23670    0.19410    0.46100    1.000
    O167     O        0.73430    0.27870    0.20060    1.000
    C55      C        0.37700    0.29900    0.33650    1.000
    H72      H        0.42990    0.34240    0.30840    1.000
    H73      H        0.49220    0.26630    0.18350    1.000
    C56      C        0.42100    0.25450    0.26840    1.000
    H74      H        0.58390    0.33880    0.72510    1.000
    C57      C        0.62370    0.29560    0.69400    1.000
    C58      C        0.58410    0.24860    0.76980    1.000
    H75      H        0.50990    0.26480    0.85300    1.000
    N15      N        0.75500    0.45660    0.43750    1.000
    O168     O        0.05540    0.59720    0.64630    1.000
    H76      H        0.44830    0.48100    0.57550    1.000
    H77      H        0.73510    0.37080    0.80670    1.000
    H78      H        0.69310    0.27000    0.21960    1.000
    C59      C        0.37290    0.26490    0.32550    1.000
    H79      H        0.34430    0.30870    0.37400    1.000
    H80      H        0.42540    0.23140    0.25930    1.000
    C60      C        0.62860    0.26140    0.70930    1.000
    H81      H        0.65000    0.30420    0.65160    1.000
    H82      H        0.58300    0.22560    0.78130    1.000
    C61      C        0.68070    0.45370    0.47290    1.000
    C62      C        0.82540    0.46550    0.48150    1.000
    H83      H        0.03850    0.57780    0.63830    1.000
    C63      C        0.32700    0.24040    0.37190    1.000
    C64      C        0.67480    0.23790    0.66120    1.000
    H84      H        0.63100    0.44740    0.44410    1.000
    C65      C        0.67800    0.46000    0.55290    1.000
    C66      C        0.82430    0.47270    0.56050    1.000
    H85      H        0.87710    0.46700    0.45820    1.000
    C67      C        0.33600    0.20560    0.36010    1.000
    C68      C        0.27400    0.25210    0.42600    1.000
    C69      C        0.66440    0.20320    0.66600    1.000
    C70      C        0.73630    0.24900    0.61400    1.000
    C71      C        0.74630    0.47110    0.59740    1.000
    H86      H        0.62700    0.45640    0.57610    1.000
    H87      H        0.87460    0.47860    0.58890    1.000
    C72      C        0.29100    0.18400    0.41040    1.000
    H88      H        0.36890    0.19690    0.32190    1.000
    C73      C        0.23290    0.22750    0.47400    1.000
    H89      H        0.26530    0.27520    0.43200    1.000
    C74      C        0.71260    0.18200    0.62010    1.000
    H90      H        0.62610    0.19400    0.69890    1.000
    C75      C        0.78310    0.22590    0.57200    1.000
    H91      H        0.74690    0.27210    0.60990    1.000
    H92      H        0.30060    0.16080    0.40710    1.000
    H93      H        0.20260    0.23530    0.51440    1.000
    H94      H        0.70160    0.15890    0.62060    1.000
    H95      H        0.82320    0.23430    0.53980    1.000
    H96      H        0.02480    0.50090    0.01040    1.000
    Mo25     Mo       0.29250    0.91571    0.47951    1.000
    Mo26     Mo       0.33229    0.87009    0.58517    1.000
    O169     O        0.24440    0.87120    0.50140    1.000
    O170     O        0.19610    0.92040    0.39170    1.000
    O171     O        0.35410    0.91850    0.58050    1.000
    O172     O        0.30310    0.96800    0.46690    1.000
    O173     O        0.18620    0.93210    0.54720    1.000
    O174     O        0.21360    0.89090    0.65710    1.000
    O175     O        0.38480    0.87070    0.69460    1.000
    O176     O        0.28200    0.82400    0.61500    1.000
    Co25     Co       0.14095    0.84270    0.47130    1.000
    P37      P        0.14400    0.89958    0.33220    1.000
    Co26     Co       0.38027    0.95415    0.66409    1.000
    P38      P        0.35090    0.99886    0.49930    1.000
    P39      P        0.18610    0.92829    0.63500    1.000
    Mo27     Mo       0.15877    0.86968    0.77394    1.000
    P40      P        0.36930    0.88572    0.77430    1.000
    P41      P        0.19380    0.81264    0.63940    1.000
    O177     O        0.10430    0.86840    0.36970    1.000
    O178     O        0.12330    0.82560    0.58470    1.000
    O179     O        0.04310    0.81190    0.42940    1.000
    N16      N        0.72700    0.69330    0.92380    1.000
    O180     O        0.07940    0.92190    0.29020    1.000
    O181     O        0.20550    0.88570    0.27130    1.000
    O182     O        0.37430    0.99530    0.58780    1.000
    O183     O        0.24400    0.95680    0.67800    1.000
    O184     O        0.42910    0.99480    0.73330    1.000
    O185     O        0.36120    0.92490    0.76770    1.000
    O186     O        0.29330    0.02880    0.48220    1.000
    O187     O        0.43410    0.00390    0.45840    1.000
    O188     O        0.09180    0.93280    0.65140    1.000
    O189     O        0.28660    0.87150    0.80530    1.000
    Mo28     Mo       0.03600    0.91379    0.75648    1.000
    O190     O        0.15450    0.91720    0.79880    1.000
    O191     O        0.05420    0.86940    0.70930    1.000
    O192     O        0.18580    0.82350    0.72440    1.000
    O193     O        0.44290    0.87760    0.83170    1.000
    O194     O        0.18890    0.77280    0.63680    1.000
    Co27     Co       0.98335    0.84338    0.34650    1.000
    Co28     Co       0.00460    0.84171    0.61820    1.000
    P42      P        0.99630    0.78742    0.48340    1.000
    Mo29     Mo       0.96323    0.92170    0.22573    1.000
    H97      H        0.22790    0.90160    0.25000    1.000
    Co29     Co       0.37795    0.03417    0.67013    1.000
    Co30     Co       0.24970    0.95346    0.80920    1.000
    P43      P        0.42760    0.99463    0.82320    1.000
    Mo30     Mo       0.29235    0.08131    0.49732    1.000
    O195     O        0.02340    0.96510    0.77040    1.000
    O196     O        0.92790    0.91860    0.68290    1.000
    H98      H        0.44800    0.85700    0.83580    1.000
    H99      H        0.14980    0.76690    0.60590    1.000
    O197     O        0.94400    0.87500    0.25930    1.000
    O198     O        0.91900    0.87850    0.42500    1.000
    O199     O        0.85960    0.81910    0.37340    1.000
    N17      N        0.03140    0.80970    0.26390    1.000
    O200     O        0.88790    0.86630    0.60150    1.000
    O201     O        0.94580    0.81030    0.53340    1.000
    N18      N        0.95990    0.80660    0.70100    1.000
    O202     O        0.93460    0.76460    0.43140    1.000
    O203     O        0.05460    0.76290    0.52960    1.000
    O204     O        0.97370    0.97360    0.22440    1.000
    Mo31     Mo       0.83502    0.88026    0.20052    1.000
    O205     O        0.92010    0.93200    0.33830    1.000
    O206     O        0.84280    0.92950    0.19320    1.000
    O207     O        0.35000    0.07410    0.59810    1.000
    O208     O        0.34440    0.06060    0.76890    1.000
    O209     O        0.33260    0.99330    0.84160    1.000
    O210     O        0.15900    0.99460    0.82020    1.000
    O211     O        0.47910    0.02320    0.86070    1.000
    O212     O        0.47390    0.96240    0.85600    1.000
    Mo32     Mo       0.33685    0.12247    0.61124    1.000
    O213     O        0.25400    0.12740    0.52420    1.000
    O214     O        0.20490    0.08060    0.40590    1.000
    O215     O        0.17740    0.06830    0.55690    1.000
    P44      P        0.06190    0.99534    0.81510    1.000
    P45      P        0.85460    0.89677    0.64560    1.000
    Co31     Co       0.84786    0.84184    0.49200    1.000
    P46      P        0.86450    0.90857    0.38240    1.000
    P47      P        0.78380    0.81614    0.31460    1.000
    C76      C        0.07390    0.81960    0.20560    1.000
    C77      C        0.03600    0.77550    0.27600    1.000
    C78      C        0.91680    0.81590    0.76260    1.000
    C79      C        0.95900    0.77270    0.68800    1.000
    H100     H        0.90140    0.77660    0.40500    1.000
    H101     H        0.08950    0.77350    0.55740    1.000
    O216     O        0.80280    0.83360    0.23800    1.000
    O217     O        0.79060    0.89380    0.32650    1.000
    O218     O        0.70480    0.88510    0.16900    1.000
    Co32     Co       0.75270    0.96654    0.18283    1.000
    P48      P        0.36900    0.09681    0.79350    1.000
    H102     H        0.45770    0.04140    0.84690    1.000
    H103     H        0.45040    0.94550    0.83690    1.000
    O219     O        0.29430    0.16810    0.64950    1.000
    O220     O        0.39350    0.11670    0.72160    1.000
    O221     O        0.02920    0.99630    0.89850    1.000
    O222     O        0.80450    0.88250    0.71160    1.000
    N19      N        0.26330    0.69410    0.03900    1.000
    O223     O        0.76570    0.77870    0.29940    1.000
    C80      C        0.12300    0.79900    0.16350    1.000
    H104     H        0.07010    0.84240    0.19160    1.000
    H105     H        0.00780    0.76630    0.31650    1.000
    C81      C        0.07900    0.75450    0.23160    1.000
    H106     H        0.91610    0.83880    0.77490    1.000
    C82      C        0.87630    0.79560    0.80600    1.000
    C83      C        0.91590    0.74860    0.73020    1.000
    H107     H        0.99010    0.76480    0.64700    1.000
    N20      N        0.74500    0.95660    0.06250    1.000
    O224     O        0.44460    0.09720    0.85370    1.000
    H108     H        0.05170    0.98100    0.92450    1.000
    H109     H        0.76490    0.87080    0.69330    1.000
    H110     H        0.80690    0.77000    0.28040    1.000
    C84      C        0.12710    0.76490    0.17450    1.000
    H111     H        0.15570    0.80870    0.12600    1.000
    H112     H        0.07460    0.73140    0.24070    1.000
    C85      C        0.87140    0.76140    0.79070    1.000
    H113     H        0.85000    0.80420    0.84840    1.000
    H114     H        0.91700    0.72560    0.71870    1.000
    C86      C        0.81930    0.95370    0.02710    1.000
    C87      C        0.67460    0.96550    0.01850    1.000
    H115     H        0.46150    0.07780    0.86170    1.000
    C88      C        0.17300    0.74040    0.12810    1.000
    C89      C        0.82520    0.73790    0.83880    1.000
    H116     H        0.86900    0.94740    0.05590    1.000
    C90      C        0.82200    0.96000    0.94710    1.000
    C91      C        0.67570    0.97270    0.93950    1.000
    H117     H        0.62290    0.96700    0.04180    1.000
    C92      C        0.16400    0.70560    0.13990    1.000
    C93      C        0.22600    0.75210    0.07400    1.000
    C94      C        0.83560    0.70320    0.83400    1.000
    C95      C        0.76370    0.74900    0.88600    1.000
    C96      C        0.75370    0.97110    0.90260    1.000
    H118     H        0.87300    0.95640    0.92390    1.000
    H119     H        0.62540    0.97860    0.91110    1.000
    C97      C        0.20900    0.68400    0.08960    1.000
    H120     H        0.13110    0.69690    0.17810    1.000
    C98      C        0.26710    0.72750    0.02600    1.000
    H121     H        0.23470    0.77520    0.06800    1.000
    C99      C        0.78740    0.68200    0.87990    1.000
    H122     H        0.87390    0.69400    0.80110    1.000
    C100     C        0.71690    0.72590    0.92800    1.000
    H123     H        0.75310    0.77210    0.89010    1.000
    H124     H        0.19940    0.66080    0.09290    1.000
    H125     H        0.29740    0.73530    0.98560    1.000
    H126     H        0.79840    0.65890    0.87940    1.000
    H127     H        0.67680    0.73430    0.96020    1.000
    H128     H        0.47520    0.00090    0.48960    1.000
