# CIF file generated by openbabel 3.1.0, see https://openbabel.org
data_I
_chemical_name_common 'image0'
_cell_length_a 18.628
_cell_length_b 18.628
_cell_length_c 36.435
_cell_angle_alpha 90
_cell_angle_beta 90
_cell_angle_gamma 120
_space_group_name_H-M_alt 'P 1'
_space_group_name_Hall 'P 1'
loop_
    _symmetry_equiv_pos_as_xyz
    x,y,z
loop_
    _atom_site_label
    _atom_site_type_symbol
    _atom_site_fract_x
    _atom_site_fract_y
    _atom_site_fract_z
    _atom_site_occupancy
    O1       O        0.48093    0.36975    0.00151    1.000
    O2       O        0.40920    0.43850    0.04817    1.000
    N1       N        0.54140    0.42070    0.07952    1.000
    C1       C        0.54680    0.35120    0.07944    1.000
    H1       H        0.55140    0.32960    0.05650    1.000
    C2       C        0.54610    0.31020    0.11090    1.000
    C3       C        0.54070    0.34350    0.14390    1.000
    H2       H        0.54140    0.31770    0.16630    1.000
    C4       C        0.53420    0.41540    0.14448    1.000
    C5       C        0.41430    0.45630    0.25401    1.000
    H3       H        0.37780    0.40450    0.24280    1.000
    C6       C        0.39090    0.47960    0.28616    1.000
    C7       C        0.44850    0.35810    0.96991    1.000
    O3       O        0.14760    0.70308    0.33484    1.000
    O4       O        0.07587    0.77183    0.38150    1.000
    N2       N        0.20807    0.75403    0.41285    1.000
    C8       C        0.21347    0.68453    0.41277    1.000
    H4       H        0.21807    0.66293    0.38983    1.000
    C9       C        0.21277    0.64353    0.44423    1.000
    C10      C        0.20737    0.67683    0.47723    1.000
    H5       H        0.20807    0.65103    0.49963    1.000
    C11      C        0.20087    0.74873    0.47781    1.000
    C12      C        0.08097    0.78963    0.58734    1.000
    H6       H        0.04447    0.73783    0.57613    1.000
    C13      C        0.05757    0.81293    0.61949    1.000
    C14      C        0.11517    0.69143    0.30324    1.000
    O5       O        0.81426    0.03642    0.66818    1.000
    O6       O        0.74253    0.10517    0.71484    1.000
    N3       N        0.87473    0.08737    0.74619    1.000
    C15      C        0.88013    0.01787    0.74611    1.000
    H7       H        0.88473    0.99627    0.72317    1.000
    C16      C        0.87943    0.97687    0.77757    1.000
    C17      C        0.87403    0.01017    0.81057    1.000
    H8       H        0.87473    0.98437    0.83297    1.000
    C18      C        0.86753    0.08207    0.81115    1.000
    C19      C        0.74763    0.12297    0.92068    1.000
    H9       H        0.71113    0.07117    0.90947    1.000
    C20      C        0.72423    0.14627    0.95283    1.000
    C21      C        0.78183    0.02477    0.63658    1.000
    O7       O        0.63025    0.11118    0.00151    1.000
    O8       O        0.56150    0.97070    0.04817    1.000
    N4       N        0.57930    0.12070    0.07952    1.000
    C22      C        0.64880    0.19560    0.07944    1.000
    H10      H        0.67040    0.22180    0.05650    1.000
    C23      C        0.68980    0.23590    0.11090    1.000
    C24      C        0.65650    0.19720    0.14390    1.000
    H11      H        0.68230    0.22370    0.16630    1.000
    C25      C        0.58460    0.11880    0.14448    1.000
    C26      C        0.54370    0.95800    0.25401    1.000
    H12      H        0.59550    0.97330    0.24280    1.000
    C27      C        0.52040    0.91130    0.28616    1.000
    C28      C        0.64190    0.09040    0.96991    1.000
    O9       O        0.29692    0.44451    0.33484    1.000
    O10      O        0.22817    0.30403    0.38150    1.000
    N5       N        0.24597    0.45403    0.41285    1.000
    C29      C        0.31547    0.52893    0.41277    1.000
    H13      H        0.33707    0.55513    0.38983    1.000
    C30      C        0.35647    0.56923    0.44423    1.000
    C31      C        0.32317    0.53053    0.47723    1.000
    H14      H        0.34897    0.55703    0.49963    1.000
    C32      C        0.25127    0.45213    0.47781    1.000
    C33      C        0.21037    0.29133    0.58734    1.000
    H15      H        0.26217    0.30663    0.57613    1.000
    C34      C        0.18707    0.24463    0.61949    1.000
    C35      C        0.30857    0.42373    0.30324    1.000
    O11      O        0.96358    0.77785    0.66818    1.000
    O12      O        0.89483    0.63737    0.71484    1.000
    N6       N        0.91263    0.78737    0.74619    1.000
    C36      C        0.98213    0.86227    0.74611    1.000
    H16      H        0.00373    0.88847    0.72317    1.000
    C37      C        0.02313    0.90257    0.77757    1.000
    C38      C        0.98983    0.86387    0.81057    1.000
    H17      H        0.01563    0.89037    0.83297    1.000
    C39      C        0.91793    0.78547    0.81115    1.000
    C40      C        0.87703    0.62467    0.92068    1.000
    H18      H        0.92883    0.63997    0.90947    1.000
    C41      C        0.85373    0.57797    0.95283    1.000
    C42      C        0.97523    0.75707    0.63658    1.000
    O13      O        0.88882    0.51907    0.00151    1.000
    O14      O        0.02930    0.59080    0.04817    1.000
    N7       N        0.87930    0.45860    0.07952    1.000
    C43      C        0.80440    0.45320    0.07944    1.000
    H19      H        0.77820    0.44860    0.05650    1.000
    C44      C        0.76410    0.45390    0.11090    1.000
    C45      C        0.80280    0.45930    0.14390    1.000
    H20      H        0.77630    0.45860    0.16630    1.000
    C46      C        0.88120    0.46580    0.14448    1.000
    C47      C        0.04200    0.58570    0.25401    1.000
    H21      H        0.02670    0.62220    0.24280    1.000
    C48      C        0.08870    0.60910    0.28616    1.000
    C49      C        0.90960    0.55150    0.96991    1.000
    O15      O        0.55549    0.85240    0.33484    1.000
    O16      O        0.69597    0.92413    0.38150    1.000
    N8       N        0.54597    0.79193    0.41285    1.000
    C50      C        0.47107    0.78653    0.41277    1.000
    H22      H        0.44487    0.78193    0.38983    1.000
    C51      C        0.43077    0.78723    0.44423    1.000
    C52      C        0.46947    0.79263    0.47723    1.000
    H23      H        0.44297    0.79193    0.49963    1.000
    C53      C        0.54787    0.79913    0.47781    1.000
    C54      C        0.70867    0.91903    0.58734    1.000
    H24      H        0.69337    0.95553    0.57613    1.000
    C55      C        0.75537    0.94243    0.61949    1.000
    C56      C        0.57627    0.88483    0.30324    1.000
    O17      O        0.22215    0.18574    0.66818    1.000
    O18      O        0.36263    0.25747    0.71484    1.000
    N9       N        0.21263    0.12527    0.74619    1.000
    C57      C        0.13773    0.11987    0.74611    1.000
    H25      H        0.11153    0.11527    0.72317    1.000
    C58      C        0.09743    0.12057    0.77757    1.000
    C59      C        0.13613    0.12597    0.81057    1.000
    H26      H        0.10963    0.12527    0.83297    1.000
    C60      C        0.21453    0.13247    0.81115    1.000
    C61      C        0.37533    0.25237    0.92068    1.000
    H27      H        0.36003    0.28887    0.90947    1.000
    C62      C        0.42203    0.27577    0.95283    1.000
    C63      C        0.24293    0.21817    0.63658    1.000
    O19      O        0.36975    0.48093    0.99849    1.000
    O20      O        0.43850    0.40920    0.95183    1.000
    N10      N        0.42070    0.54140    0.92048    1.000
    C64      C        0.35120    0.54680    0.92056    1.000
    H28      H        0.32960    0.55140    0.94350    1.000
    C65      C        0.31020    0.54610    0.88910    1.000
    C66      C        0.34350    0.54070    0.85610    1.000
    H29      H        0.31770    0.54140    0.83370    1.000
    C67      C        0.41540    0.53420    0.85552    1.000
    C68      C        0.45630    0.41430    0.74599    1.000
    H30      H        0.40450    0.37780    0.75720    1.000
    C69      C        0.47960    0.39090    0.71384    1.000
    C70      C        0.35810    0.44850    0.03009    1.000
    O21      O        0.03642    0.81426    0.33182    1.000
    O22      O        0.10517    0.74253    0.28516    1.000
    N11      N        0.08737    0.87473    0.25381    1.000
    C71      C        0.01787    0.88013    0.25389    1.000
    H31      H        0.99627    0.88473    0.27683    1.000
    C72      C        0.97687    0.87943    0.22243    1.000
    C73      C        0.01017    0.87403    0.18943    1.000
    H32      H        0.98437    0.87473    0.16703    1.000
    C74      C        0.08207    0.86753    0.18885    1.000
    C75      C        0.12297    0.74763    0.07932    1.000
    H33      H        0.07117    0.71113    0.09053    1.000
    C76      C        0.14627    0.72423    0.04717    1.000
    C77      C        0.02477    0.78183    0.36342    1.000
    O23      O        0.70308    0.14760    0.66516    1.000
    O24      O        0.77183    0.07587    0.61850    1.000
    N12      N        0.75403    0.20807    0.58715    1.000
    C78      C        0.68453    0.21347    0.58723    1.000
    H34      H        0.66293    0.21807    0.61017    1.000
    C79      C        0.64353    0.21277    0.55577    1.000
    C80      C        0.67683    0.20737    0.52277    1.000
    H35      H        0.65103    0.20807    0.50037    1.000
    C81      C        0.74873    0.20087    0.52219    1.000
    C82      C        0.78963    0.08097    0.41266    1.000
    H36      H        0.73783    0.04447    0.42387    1.000
    C83      C        0.81293    0.05757    0.38051    1.000
    C84      C        0.69143    0.11517    0.69676    1.000
    O25      O        0.11118    0.63025    0.99849    1.000
    O26      O        0.97070    0.56150    0.95183    1.000
    N13      N        0.12070    0.57930    0.92048    1.000
    C85      C        0.19560    0.64880    0.92056    1.000
    H37      H        0.22180    0.67040    0.94350    1.000
    C86      C        0.23590    0.68980    0.88910    1.000
    C87      C        0.19720    0.65650    0.85610    1.000
    H38      H        0.22370    0.68230    0.83370    1.000
    C88      C        0.11880    0.58460    0.85552    1.000
    C89      C        0.95800    0.54370    0.74599    1.000
    H39      H        0.97330    0.59550    0.75720    1.000
    C90      C        0.91130    0.52040    0.71384    1.000
    C91      C        0.09040    0.64190    0.03009    1.000
    O27      O        0.77785    0.96358    0.33182    1.000
    O28      O        0.63737    0.89483    0.28516    1.000
    N14      N        0.78737    0.91263    0.25381    1.000
    C92      C        0.86227    0.98213    0.25389    1.000
    H40      H        0.88847    0.00373    0.27683    1.000
    C93      C        0.90257    0.02313    0.22243    1.000
    C94      C        0.86387    0.98983    0.18943    1.000
    H41      H        0.89037    0.01563    0.16703    1.000
    C95      C        0.78547    0.91793    0.18885    1.000
    C96      C        0.62467    0.87703    0.07932    1.000
    H42      H        0.63997    0.92883    0.09053    1.000
    C97      C        0.57797    0.85373    0.04717    1.000
    C98      C        0.75707    0.97523    0.36342    1.000
    O29      O        0.44451    0.29692    0.66516    1.000
    O30      O        0.30403    0.22817    0.61850    1.000
    N15      N        0.45403    0.24597    0.58715    1.000
    C99      C        0.52893    0.31547    0.58723    1.000
    H43      H        0.55513    0.33707    0.61017    1.000
    C100     C        0.56923    0.35647    0.55577    1.000
    C101     C        0.53053    0.32317    0.52277    1.000
    H44      H        0.55703    0.34897    0.50037    1.000
    C102     C        0.45213    0.25127    0.52219    1.000
    C103     C        0.29133    0.21037    0.41266    1.000
    H45      H        0.30663    0.26217    0.42387    1.000
    C104     C        0.24463    0.18707    0.38051    1.000
    C105     C        0.42373    0.30857    0.69676    1.000
    O31      O        0.51907    0.88882    0.99849    1.000
    O32      O        0.59080    0.02930    0.95183    1.000
    N16      N        0.45860    0.87930    0.92048    1.000
    C106     C        0.45320    0.80440    0.92056    1.000
    H46      H        0.44860    0.77820    0.94350    1.000
    C107     C        0.45390    0.76410    0.88910    1.000
    C108     C        0.45930    0.80280    0.85610    1.000
    H47      H        0.45860    0.77630    0.83370    1.000
    C109     C        0.46580    0.88120    0.85552    1.000
    C110     C        0.58570    0.04200    0.74599    1.000
    H48      H        0.62220    0.02670    0.75720    1.000
    C111     C        0.60910    0.08870    0.71384    1.000
    C112     C        0.55150    0.90960    0.03009    1.000
    O33      O        0.18574    0.22215    0.33182    1.000
    O34      O        0.25747    0.36263    0.28516    1.000
    N17      N        0.12527    0.21263    0.25381    1.000
    C113     C        0.11987    0.13773    0.25389    1.000
    H49      H        0.11527    0.11153    0.27683    1.000
    C114     C        0.12057    0.09743    0.22243    1.000
    C115     C        0.12597    0.13613    0.18943    1.000
    H50      H        0.12527    0.10963    0.16703    1.000
    C116     C        0.13247    0.21453    0.18885    1.000
    C117     C        0.25237    0.37533    0.07932    1.000
    H51      H        0.28887    0.36003    0.09053    1.000
    C118     C        0.27577    0.42203    0.04717    1.000
    C119     C        0.21817    0.24293    0.36342    1.000
    O35      O        0.85240    0.55549    0.66516    1.000
    O36      O        0.92413    0.69597    0.61850    1.000
    N18      N        0.79193    0.54597    0.58715    1.000
    C120     C        0.78653    0.47107    0.58723    1.000
    H52      H        0.78193    0.44487    0.61017    1.000
    C121     C        0.78723    0.43077    0.55577    1.000
    C122     C        0.79263    0.46947    0.52277    1.000
    H53      H        0.79193    0.44297    0.50037    1.000
    C123     C        0.79913    0.54787    0.52219    1.000
    C124     C        0.91903    0.70867    0.41266    1.000
    H54      H        0.95553    0.69337    0.42387    1.000
    C125     C        0.94243    0.75537    0.38051    1.000
    C126     C        0.88483    0.57627    0.69676    1.000
    O37      O        0.51907    0.63025    0.99849    1.000
    O38      O        0.59080    0.56150    0.95183    1.000
    N19      N        0.45860    0.57930    0.92048    1.000
    C127     C        0.45320    0.64880    0.92056    1.000
    H55      H        0.44860    0.67040    0.94350    1.000
    C128     C        0.45390    0.68980    0.88910    1.000
    C129     C        0.45930    0.65650    0.85610    1.000
    H56      H        0.45860    0.68230    0.83370    1.000
    C130     C        0.46580    0.58460    0.85552    1.000
    C131     C        0.58570    0.54370    0.74599    1.000
    H57      H        0.62220    0.59550    0.75720    1.000
    C132     C        0.60910    0.52040    0.71384    1.000
    C133     C        0.55150    0.64190    0.03009    1.000
    O39      O        0.18574    0.96358    0.33182    1.000
    O40      O        0.25747    0.89483    0.28516    1.000
    N20      N        0.12527    0.91263    0.25381    1.000
    C134     C        0.11987    0.98213    0.25389    1.000
    H58      H        0.11527    0.00373    0.27683    1.000
    C135     C        0.12057    0.02313    0.22243    1.000
    C136     C        0.12597    0.98983    0.18943    1.000
    H59      H        0.12527    0.01563    0.16703    1.000
    C137     C        0.13247    0.91793    0.18885    1.000
    C138     C        0.25237    0.87703    0.07932    1.000
    H60      H        0.28887    0.92883    0.09053    1.000
    C139     C        0.27577    0.85373    0.04717    1.000
    C140     C        0.21817    0.97523    0.36342    1.000
    O41      O        0.85240    0.29692    0.66516    1.000
    O42      O        0.92413    0.22817    0.61850    1.000
    N21      N        0.79193    0.24597    0.58715    1.000
    C141     C        0.78653    0.31547    0.58723    1.000
    H61      H        0.78193    0.33707    0.61017    1.000
    C142     C        0.78723    0.35647    0.55577    1.000
    C143     C        0.79263    0.32317    0.52277    1.000
    H62      H        0.79193    0.34897    0.50037    1.000
    C144     C        0.79913    0.25127    0.52219    1.000
    C145     C        0.91903    0.21037    0.41266    1.000
    H63      H        0.95553    0.26217    0.42387    1.000
    C146     C        0.94243    0.18707    0.38051    1.000
    C147     C        0.88483    0.30857    0.69676    1.000
    O43      O        0.36975    0.88882    0.99849    1.000
    O44      O        0.43850    0.02930    0.95183    1.000
    N22      N        0.42070    0.87930    0.92048    1.000
    C148     C        0.35120    0.80440    0.92056    1.000
    H64      H        0.32960    0.77820    0.94350    1.000
    C149     C        0.31020    0.76410    0.88910    1.000
    C150     C        0.34350    0.80280    0.85610    1.000
    H65      H        0.31770    0.77630    0.83370    1.000
    C151     C        0.41540    0.88120    0.85552    1.000
    C152     C        0.45630    0.04200    0.74599    1.000
    H66      H        0.40450    0.02670    0.75720    1.000
    C153     C        0.47960    0.08870    0.71384    1.000
    C154     C        0.35810    0.90960    0.03009    1.000
    O45      O        0.03642    0.22215    0.33182    1.000
    O46      O        0.10517    0.36263    0.28516    1.000
    N23      N        0.08737    0.21263    0.25381    1.000
    C155     C        0.01787    0.13773    0.25389    1.000
    H67      H        0.99627    0.11153    0.27683    1.000
    C156     C        0.97687    0.09743    0.22243    1.000
    C157     C        0.01017    0.13613    0.18943    1.000
    H68      H        0.98437    0.10963    0.16703    1.000
    C158     C        0.08207    0.21453    0.18885    1.000
    C159     C        0.12297    0.37533    0.07932    1.000
    H69      H        0.07117    0.36003    0.09053    1.000
    C160     C        0.14627    0.42203    0.04717    1.000
    C161     C        0.02477    0.24293    0.36342    1.000
    O47      O        0.70308    0.55549    0.66516    1.000
    O48      O        0.77183    0.69597    0.61850    1.000
    N24      N        0.75403    0.54597    0.58715    1.000
    C162     C        0.68453    0.47107    0.58723    1.000
    H70      H        0.66293    0.44487    0.61017    1.000
    C163     C        0.64353    0.43077    0.55577    1.000
    C164     C        0.67683    0.46947    0.52277    1.000
    H71      H        0.65103    0.44297    0.50037    1.000
    C165     C        0.74873    0.54787    0.52219    1.000
    C166     C        0.78963    0.70867    0.41266    1.000
    H72      H        0.73783    0.69337    0.42387    1.000
    C167     C        0.81293    0.75537    0.38051    1.000
    C168     C        0.69143    0.57627    0.69676    1.000
    O49      O        0.11118    0.48093    0.99849    1.000
    O50      O        0.97070    0.40920    0.95183    1.000
    N25      N        0.12070    0.54140    0.92048    1.000
    C169     C        0.19560    0.54680    0.92056    1.000
    H73      H        0.22180    0.55140    0.94350    1.000
    C170     C        0.23590    0.54610    0.88910    1.000
    C171     C        0.19720    0.54070    0.85610    1.000
    H74      H        0.22370    0.54140    0.83370    1.000
    C172     C        0.11880    0.53420    0.85552    1.000
    C173     C        0.95800    0.41430    0.74599    1.000
    H75      H        0.97330    0.37780    0.75720    1.000
    C174     C        0.91130    0.39090    0.71384    1.000
    C175     C        0.09040    0.44850    0.03009    1.000
    O51      O        0.77785    0.81426    0.33182    1.000
    O52      O        0.63737    0.74253    0.28516    1.000
    N26      N        0.78737    0.87473    0.25381    1.000
    C176     C        0.86227    0.88013    0.25389    1.000
    H76      H        0.88847    0.88473    0.27683    1.000
    C177     C        0.90257    0.87943    0.22243    1.000
    C178     C        0.86387    0.87403    0.18943    1.000
    H77      H        0.89037    0.87473    0.16703    1.000
    C179     C        0.78547    0.86753    0.18885    1.000
    C180     C        0.62467    0.74763    0.07932    1.000
    H78      H        0.63997    0.71113    0.09053    1.000
    C181     C        0.57797    0.72423    0.04717    1.000
    C182     C        0.75707    0.78183    0.36342    1.000
    O53      O        0.44451    0.14760    0.66516    1.000
    O54      O        0.30403    0.07587    0.61850    1.000
    N27      N        0.45403    0.20807    0.58715    1.000
    C183     C        0.52893    0.21347    0.58723    1.000
    H79      H        0.55513    0.21807    0.61017    1.000
    C184     C        0.56923    0.21277    0.55577    1.000
    C185     C        0.53053    0.20737    0.52277    1.000
    H80      H        0.55703    0.20807    0.50037    1.000
    C186     C        0.45213    0.20087    0.52219    1.000
    C187     C        0.29133    0.08097    0.41266    1.000
    H81      H        0.30663    0.04447    0.42387    1.000
    C188     C        0.24463    0.05757    0.38051    1.000
    C189     C        0.42373    0.11517    0.69676    1.000
    O55      O        0.63025    0.51907    0.00151    1.000
    O56      O        0.56150    0.59080    0.04817    1.000
    N28      N        0.57930    0.45860    0.07952    1.000
    C190     C        0.64880    0.45320    0.07944    1.000
    H82      H        0.67040    0.44860    0.05650    1.000
    C191     C        0.68980    0.45390    0.11090    1.000
    C192     C        0.65650    0.45930    0.14390    1.000
    H83      H        0.68230    0.45860    0.16630    1.000
    C193     C        0.58460    0.46580    0.14448    1.000
    C194     C        0.54370    0.58570    0.25401    1.000
    H84      H        0.59550    0.62220    0.24280    1.000
    C195     C        0.52040    0.60910    0.28616    1.000
    C196     C        0.64190    0.55150    0.96991    1.000
    O57      O        0.29692    0.85240    0.33484    1.000
    O58      O        0.22817    0.92413    0.38150    1.000
    N29      N        0.24597    0.79193    0.41285    1.000
    C197     C        0.31547    0.78653    0.41277    1.000
    H85      H        0.33707    0.78193    0.38983    1.000
    C198     C        0.35647    0.78723    0.44423    1.000
    C199     C        0.32317    0.79263    0.47723    1.000
    H86      H        0.34897    0.79193    0.49963    1.000
    C200     C        0.25127    0.79913    0.47781    1.000
    C201     C        0.21037    0.91903    0.58734    1.000
    H87      H        0.26217    0.95553    0.57613    1.000
    C202     C        0.18707    0.94243    0.61949    1.000
    C203     C        0.30857    0.88483    0.30324    1.000
    O59      O        0.96358    0.18574    0.66818    1.000
    O60      O        0.89483    0.25747    0.71484    1.000
    N30      N        0.91263    0.12527    0.74619    1.000
    C204     C        0.98213    0.11987    0.74611    1.000
    H88      H        0.00373    0.11527    0.72317    1.000
    C205     C        0.02313    0.12057    0.77757    1.000
    C206     C        0.98983    0.12597    0.81057    1.000
    H89      H        0.01563    0.12527    0.83297    1.000
    C207     C        0.91793    0.13247    0.81115    1.000
    C208     C        0.87703    0.25237    0.92068    1.000
    H90      H        0.92883    0.28887    0.90947    1.000
    C209     C        0.85373    0.27577    0.95283    1.000
    C210     C        0.97523    0.21817    0.63658    1.000
    O61      O        0.88882    0.36975    0.00151    1.000
    O62      O        0.02930    0.43850    0.04817    1.000
    N31      N        0.87930    0.42070    0.07952    1.000
    C211     C        0.80440    0.35120    0.07944    1.000
    H91      H        0.77820    0.32960    0.05650    1.000
    C212     C        0.76410    0.31020    0.11090    1.000
    C213     C        0.80280    0.34350    0.14390    1.000
    H92      H        0.77630    0.31770    0.16630    1.000
    C214     C        0.88120    0.41540    0.14448    1.000
    C215     C        0.04200    0.45630    0.25401    1.000
    H93      H        0.02670    0.40450    0.24280    1.000
    C216     C        0.08870    0.47960    0.28616    1.000
    C217     C        0.90960    0.35810    0.96991    1.000
    O63      O        0.55549    0.70308    0.33484    1.000
    O64      O        0.69597    0.77183    0.38150    1.000
    N32      N        0.54597    0.75403    0.41285    1.000
    C218     C        0.47107    0.68453    0.41277    1.000
    H94      H        0.44487    0.66293    0.38983    1.000
    C219     C        0.43077    0.64353    0.44423    1.000
    C220     C        0.46947    0.67683    0.47723    1.000
    H95      H        0.44297    0.65103    0.49963    1.000
    C221     C        0.54787    0.74873    0.47781    1.000
    C222     C        0.70867    0.78963    0.58734    1.000
    H96      H        0.69337    0.73783    0.57613    1.000
    C223     C        0.75537    0.81293    0.61949    1.000
    C224     C        0.57627    0.69143    0.30324    1.000
    O65      O        0.22215    0.03642    0.66818    1.000
    O66      O        0.36263    0.10517    0.71484    1.000
    N33      N        0.21263    0.08737    0.74619    1.000
    C225     C        0.13773    0.01787    0.74611    1.000
    H97      H        0.11153    0.99627    0.72317    1.000
    C226     C        0.09743    0.97687    0.77757    1.000
    C227     C        0.13613    0.01017    0.81057    1.000
    H98      H        0.10963    0.98437    0.83297    1.000
    C228     C        0.21453    0.08207    0.81115    1.000
    C229     C        0.37533    0.12297    0.92068    1.000
    H99      H        0.36003    0.07117    0.90947    1.000
    C230     C        0.42203    0.14627    0.95283    1.000
    C231     C        0.24293    0.02477    0.63658    1.000
    O67      O        0.48093    0.11118    0.00151    1.000
    O68      O        0.40920    0.97070    0.04817    1.000
    N34      N        0.54140    0.12070    0.07952    1.000
    C232     C        0.54680    0.19560    0.07944    1.000
    H100     H        0.55140    0.22180    0.05650    1.000
    C233     C        0.54610    0.23590    0.11090    1.000
    C234     C        0.54070    0.19720    0.14390    1.000
    H101     H        0.54140    0.22370    0.16630    1.000
    C235     C        0.53420    0.11880    0.14448    1.000
    C236     C        0.41430    0.95800    0.25401    1.000
    H102     H        0.37780    0.97330    0.24280    1.000
    C237     C        0.39090    0.91130    0.28616    1.000
    C238     C        0.44850    0.09040    0.96991    1.000
    O69      O        0.14760    0.44451    0.33484    1.000
    O70      O        0.07587    0.30403    0.38150    1.000
    N35      N        0.20807    0.45403    0.41285    1.000
    C239     C        0.21347    0.52893    0.41277    1.000
    H103     H        0.21807    0.55513    0.38983    1.000
    C240     C        0.21277    0.56923    0.44423    1.000
    C241     C        0.20737    0.53053    0.47723    1.000
    H104     H        0.20807    0.55703    0.49963    1.000
    C242     C        0.20087    0.45213    0.47781    1.000
    C243     C        0.08097    0.29133    0.58734    1.000
    H105     H        0.04447    0.30663    0.57613    1.000
    C244     C        0.05757    0.24463    0.61949    1.000
    C245     C        0.11517    0.42373    0.30324    1.000
    O71      O        0.81426    0.77785    0.66818    1.000
    O72      O        0.74253    0.63737    0.71484    1.000
    N36      N        0.87473    0.78737    0.74619    1.000
    C246     C        0.88013    0.86227    0.74611    1.000
    H106     H        0.88473    0.88847    0.72317    1.000
    C247     C        0.87943    0.90257    0.77757    1.000
    C248     C        0.87403    0.86387    0.81057    1.000
    H107     H        0.87473    0.89037    0.83297    1.000
    C249     C        0.86753    0.78547    0.81115    1.000
    C250     C        0.74763    0.62467    0.92068    1.000
    H108     H        0.71113    0.63997    0.90947    1.000
    C251     C        0.72423    0.57797    0.95283    1.000
    C252     C        0.78183    0.75707    0.63658    1.000
    Zn1      Zn       0.52704    0.47296    0.03266    1.000
    C253     C        0.54138    0.45862    0.11148    1.000
    C254     C        0.53625    0.46375    0.17826    1.000
    C255     C        0.51610    0.48390    0.20545    1.000
    C256     C        0.49110    0.50890    0.23814    1.000
    C257     C        0.44509    0.55491    0.30231    1.000
    H109     H        0.43030    0.56970    0.32480    1.000
    Zn2      Zn       0.19371    0.80629    0.36599    1.000
    C258     C        0.20805    0.79195    0.44481    1.000
    C259     C        0.20292    0.79708    0.51159    1.000
    C260     C        0.18277    0.81723    0.53878    1.000
    C261     C        0.15777    0.84223    0.57147    1.000
    C262     C        0.11176    0.88824    0.63564    1.000
    H110     H        0.09697    0.90303    0.65813    1.000
    Zn3      Zn       0.86037    0.13963    0.69932    1.000
    C263     C        0.87472    0.12528    0.77815    1.000
    C264     C        0.86958    0.13042    0.84493    1.000
    C265     C        0.84943    0.15057    0.87212    1.000
    C266     C        0.82443    0.17557    0.90481    1.000
    C267     C        0.77842    0.22158    0.96898    1.000
    H111     H        0.76363    0.23637    0.99147    1.000
    Zn4      Zn       0.52704    0.05408    0.03266    1.000
    C268     C        0.54138    0.08277    0.11148    1.000
    C269     C        0.53625    0.07250    0.17826    1.000
    C270     C        0.51610    0.03220    0.20545    1.000
    C271     C        0.49110    0.98220    0.23814    1.000
    C272     C        0.44509    0.89018    0.30231    1.000
    H112     H        0.43030    0.86060    0.32480    1.000
    Zn5      Zn       0.19371    0.38741    0.36599    1.000
    C273     C        0.20805    0.41610    0.44481    1.000
    C274     C        0.20292    0.40583    0.51159    1.000
    C275     C        0.18277    0.36553    0.53878    1.000
    C276     C        0.15777    0.31553    0.57147    1.000
    C277     C        0.11176    0.22351    0.63564    1.000
    H113     H        0.09697    0.19393    0.65813    1.000
    Zn6      Zn       0.86037    0.72075    0.69932    1.000
    C278     C        0.87472    0.74944    0.77815    1.000
    C279     C        0.86958    0.73917    0.84493    1.000
    C280     C        0.84943    0.69887    0.87212    1.000
    C281     C        0.82443    0.64887    0.90481    1.000
    C282     C        0.77842    0.55685    0.96898    1.000
    H114     H        0.76363    0.52727    0.99147    1.000
    Zn7      Zn       0.94592    0.47296    0.03266    1.000
    C283     C        0.91723    0.45862    0.11148    1.000
    C284     C        0.92750    0.46375    0.17826    1.000
    C285     C        0.96780    0.48390    0.20545    1.000
    C286     C        0.01780    0.50890    0.23814    1.000
    C287     C        0.10982    0.55491    0.30231    1.000
    H115     H        0.13940    0.56970    0.32480    1.000
    Zn8      Zn       0.61259    0.80629    0.36599    1.000
    C288     C        0.58390    0.79195    0.44481    1.000
    C289     C        0.59417    0.79708    0.51159    1.000
    C290     C        0.63447    0.81723    0.53878    1.000
    C291     C        0.68447    0.84223    0.57147    1.000
    C292     C        0.77649    0.88824    0.63564    1.000
    H116     H        0.80607    0.90303    0.65813    1.000
    Zn9      Zn       0.27925    0.13963    0.69932    1.000
    C293     C        0.25056    0.12528    0.77815    1.000
    C294     C        0.26083    0.13042    0.84493    1.000
    C295     C        0.30113    0.15057    0.87212    1.000
    C296     C        0.35113    0.17557    0.90481    1.000
    C297     C        0.44315    0.22158    0.96898    1.000
    H117     H        0.47273    0.23637    0.99147    1.000
    Zn10     Zn       0.47296    0.52704    0.96734    1.000
    C298     C        0.45862    0.54138    0.88852    1.000
    C299     C        0.46375    0.53625    0.82174    1.000
    C300     C        0.48390    0.51610    0.79455    1.000
    C301     C        0.50890    0.49110    0.76186    1.000
    C302     C        0.55491    0.44509    0.69769    1.000
    H118     H        0.56970    0.43030    0.67520    1.000
    Zn11     Zn       0.13963    0.86037    0.30068    1.000
    C303     C        0.12528    0.87472    0.22185    1.000
    C304     C        0.13042    0.86958    0.15507    1.000
    C305     C        0.15057    0.84943    0.12788    1.000
    C306     C        0.17557    0.82443    0.09519    1.000
    C307     C        0.22158    0.77842    0.03102    1.000
    H119     H        0.23637    0.76363    0.00853    1.000
    Zn12     Zn       0.80629    0.19371    0.63401    1.000
    C308     C        0.79195    0.20805    0.55519    1.000
    C309     C        0.79708    0.20292    0.48841    1.000
    C310     C        0.81723    0.18277    0.46122    1.000
    C311     C        0.84223    0.15777    0.42853    1.000
    C312     C        0.88824    0.11176    0.36436    1.000
    H120     H        0.90303    0.09697    0.34187    1.000
    Zn13     Zn       0.05408    0.52704    0.96734    1.000
    C313     C        0.08277    0.54138    0.88852    1.000
    C314     C        0.07250    0.53625    0.82174    1.000
    C315     C        0.03220    0.51610    0.79455    1.000
    C316     C        0.98220    0.49110    0.76186    1.000
    C317     C        0.89018    0.44509    0.69769    1.000
    H121     H        0.86060    0.43030    0.67520    1.000
    Zn14     Zn       0.72075    0.86037    0.30068    1.000
    C318     C        0.74944    0.87472    0.22185    1.000
    C319     C        0.73917    0.86958    0.15507    1.000
    C320     C        0.69887    0.84943    0.12788    1.000
    C321     C        0.64887    0.82443    0.09519    1.000
    C322     C        0.55685    0.77842    0.03102    1.000
    H122     H        0.52727    0.76363    0.00853    1.000
    Zn15     Zn       0.38741    0.19371    0.63401    1.000
    C323     C        0.41610    0.20805    0.55519    1.000
    C324     C        0.40583    0.20292    0.48841    1.000
    C325     C        0.36553    0.18277    0.46122    1.000
    C326     C        0.31553    0.15777    0.42853    1.000
    C327     C        0.22351    0.11176    0.36436    1.000
    H123     H        0.19393    0.09697    0.34187    1.000
    Zn16     Zn       0.47296    0.94592    0.96734    1.000
    C328     C        0.45862    0.91723    0.88852    1.000
    C329     C        0.46375    0.92750    0.82174    1.000
    C330     C        0.48390    0.96780    0.79455    1.000
    C331     C        0.50890    0.01780    0.76186    1.000
    C332     C        0.55491    0.10982    0.69769    1.000
    H124     H        0.56970    0.13940    0.67520    1.000
    Zn17     Zn       0.13963    0.27925    0.30068    1.000
    C333     C        0.12528    0.25056    0.22185    1.000
    C334     C        0.13042    0.26083    0.15507    1.000
    C335     C        0.15057    0.30113    0.12788    1.000
    C336     C        0.17557    0.35113    0.09519    1.000
    C337     C        0.22158    0.44315    0.03102    1.000
    H125     H        0.23637    0.47273    0.00853    1.000
    Zn18     Zn       0.80629    0.61259    0.63401    1.000
    C338     C        0.79195    0.58390    0.55519    1.000
    C339     C        0.79708    0.59417    0.48841    1.000
    C340     C        0.81723    0.63447    0.46122    1.000
    C341     C        0.84223    0.68447    0.42853    1.000
    C342     C        0.88824    0.77649    0.36436    1.000
    H126     H        0.90303    0.80607    0.34187    1.000
