# CIF file generated by openbabel 3.1.0, see https://openbabel.org
data_I
_chemical_name_common 'image0'
_cell_length_a 15.8346
_cell_length_b 15.8346
_cell_length_c 21.463
_cell_angle_alpha 90
_cell_angle_beta 90
_cell_angle_gamma 90
_space_group_name_H-M_alt 'P 1'
_space_group_name_Hall 'P 1'
loop_
    _symmetry_equiv_pos_as_xyz
    x,y,z
loop_
    _atom_site_label
    _atom_site_type_symbol
    _atom_site_fract_x
    _atom_site_fract_y
    _atom_site_fract_z
    _atom_site_occupancy
    C1       C        0.91270    0.85920    0.85800    1.000
    H1       H        0.96290    0.88830    0.84680    1.000
    C2       C        0.88320    0.79780    0.81870    1.000
    H2       H        0.91370    0.78440    0.78190    1.000
    C3       C        0.80770    0.75430    0.83270    1.000
    C4       C        0.76510    0.78180    0.88500    1.000
    H3       H        0.71130    0.75870    0.89480    1.000
    C5       C        0.79970    0.84260    0.92290    1.000
    H4       H        0.76930    0.85870    0.95910    1.000
    C6       C        0.77800    0.68220    0.79480    1.000
    C7       C        0.80810    0.66360    0.73590    1.000
    H5       H        0.84970    0.69900    0.71760    1.000
    C8       C        0.40570    0.22140    0.79650    1.000
    H6       H        0.41600    0.20100    0.83740    1.000
    C9       C        0.46040    0.27990    0.77100    1.000
    H7       H        0.50900    0.29810    0.79320    1.000
    C10      C        0.44270    0.31120    0.71280    1.000
    C11      C        0.37240    0.28290    0.67970    1.000
    H8       H        0.36120    0.30500    0.63940    1.000
    C12      C        0.49660    0.37530    0.68130    1.000
    C13      C        0.59220    0.42570    0.61920    1.000
    C14      C        0.66370    0.43440    0.57540    1.000
    C15      C        0.66510    0.50650    0.53870    1.000
    H9       H        0.62000    0.54590    0.54090    1.000
    C16      C        0.73170    0.52090    0.49900    1.000
    H10      H        0.73620    0.57270    0.47690    1.000
    C17      C        0.79370    0.45680    0.49170    1.000
    H11      H        0.83530    0.46170    0.46000    1.000
    C18      C        0.79340    0.38840    0.53000    1.000
    C19      C        0.72650    0.37530    0.57010    1.000
    H12      H        0.72400    0.32510    0.59430    1.000
    C20      C        0.86010    0.31990    0.52250    1.000
    C21      C        0.87700    0.26490    0.57130    1.000
    H13      H        0.85070    0.27150    0.61080    1.000
    C22      C        0.93360    0.20030    0.56020    1.000
    H14      H        0.94220    0.16110    0.59310    1.000
    C23      C        0.96110    0.24460    0.46390    1.000
    H15      H        0.99090    0.23790    0.42580    1.000
    C24      C        0.90630    0.31150    0.46800    1.000
    H16      H        0.90030    0.35060    0.43470    1.000
    N1       N        0.87450    0.88060    0.91160    1.000
    N2       N        0.49170    0.45590    0.68370    1.000
    N3       N        0.55270    0.48950    0.64460    1.000
    N4       N        0.55980    0.35300    0.64180    1.000
    N5       N        0.58120    0.26900    0.62330    1.000
    H17      H        0.58300    0.23520    0.65760    1.000
    H18      H        0.54100    0.24970    0.59660    1.000
    N6       N        0.97640    0.18750    0.50910    1.000
    C25      C        0.08730    0.14080    0.35800    1.000
    H19      H        0.03710    0.11170    0.34680    1.000
    C26      C        0.11680    0.20220    0.31870    1.000
    H20      H        0.08630    0.21560    0.28190    1.000
    C27      C        0.19230    0.24570    0.33270    1.000
    C28      C        0.23490    0.21820    0.38500    1.000
    H21      H        0.28870    0.24130    0.39480    1.000
    C29      C        0.20030    0.15740    0.42290    1.000
    H22      H        0.23070    0.14130    0.45910    1.000
    C30      C        0.22200    0.31780    0.29480    1.000
    C31      C        0.19190    0.33640    0.23590    1.000
    H23      H        0.15030    0.30100    0.21760    1.000
    C32      C        0.59430    0.77860    0.29650    1.000
    H24      H        0.58400    0.79900    0.33740    1.000
    C33      C        0.53960    0.72010    0.27100    1.000
    H25      H        0.49100    0.70190    0.29320    1.000
    C34      C        0.55730    0.68880    0.21280    1.000
    C35      C        0.62760    0.71710    0.17970    1.000
    H26      H        0.63880    0.69500    0.13940    1.000
    C36      C        0.50340    0.62470    0.18130    1.000
    C37      C        0.40780    0.57430    0.11920    1.000
    C38      C        0.33630    0.56560    0.07540    1.000
    C39      C        0.33490    0.49350    0.03870    1.000
    H27      H        0.38000    0.45410    0.04090    1.000
    C40      C        0.26830    0.47910    0.99900    1.000
    H28      H        0.26380    0.42730    0.97690    1.000
    C41      C        0.20630    0.54320    0.99170    1.000
    H29      H        0.16470    0.53830    0.96000    1.000
    C42      C        0.20660    0.61160    0.03000    1.000
    C43      C        0.27350    0.62470    0.07010    1.000
    H30      H        0.27600    0.67490    0.09430    1.000
    C44      C        0.13990    0.68010    0.02250    1.000
    C45      C        0.12300    0.73510    0.07130    1.000
    H31      H        0.14930    0.72850    0.11080    1.000
    C46      C        0.06640    0.79970    0.06020    1.000
    H32      H        0.05780    0.83890    0.09310    1.000
    C47      C        0.03890    0.75540    0.96390    1.000
    H33      H        0.00910    0.76210    0.92580    1.000
    C48      C        0.09370    0.68850    0.96800    1.000
    H34      H        0.09970    0.64940    0.93470    1.000
    N7       N        0.12550    0.11940    0.41160    1.000
    N8       N        0.50830    0.54410    0.18370    1.000
    N9       N        0.44730    0.51050    0.14460    1.000
    N10      N        0.44020    0.64700    0.14180    1.000
    N11      N        0.41880    0.73100    0.12330    1.000
    H35      H        0.41700    0.76480    0.15760    1.000
    H36      H        0.45900    0.75030    0.09660    1.000
    N12      N        0.02360    0.81250    0.00910    1.000
    C49      C        0.64080    0.41270    0.10800    1.000
    H37      H        0.61170    0.46290    0.09680    1.000
    C50      C        0.70220    0.38320    0.06870    1.000
    H38      H        0.71560    0.41370    0.03190    1.000
    C51      C        0.74570    0.30770    0.08270    1.000
    C52      C        0.71820    0.26510    0.13500    1.000
    H39      H        0.74130    0.21130    0.14480    1.000
    C53      C        0.65740    0.29970    0.17290    1.000
    H40      H        0.64130    0.26930    0.20910    1.000
    C54      C        0.81780    0.27800    0.04480    1.000
    C55      C        0.83640    0.30810    0.98590    1.000
    H41      H        0.80100    0.34970    0.96760    1.000
    C56      C        0.27860    0.90570    0.04650    1.000
    H42      H        0.29900    0.91600    0.08740    1.000
    C57      C        0.22010    0.96040    0.02100    1.000
    H43      H        0.20190    0.00900    0.04320    1.000
    C58      C        0.18880    0.94270    0.96280    1.000
    C59      C        0.21710    0.87240    0.92970    1.000
    H44      H        0.19500    0.86120    0.88940    1.000
    C60      C        0.12470    0.99660    0.93130    1.000
    C61      C        0.07430    0.09220    0.86920    1.000
    C62      C        0.06560    0.16370    0.82540    1.000
    C63      C        0.99350    0.16510    0.78870    1.000
    H45      H        0.95410    0.12000    0.79090    1.000
    C64      C        0.97910    0.23170    0.74900    1.000
    H46      H        0.92730    0.23620    0.72690    1.000
    C65      C        0.04320    0.29370    0.74170    1.000
    H47      H        0.03830    0.33530    0.71000    1.000
    C66      C        0.11160    0.29340    0.78000    1.000
    C67      C        0.12470    0.22650    0.82010    1.000
    H48      H        0.17490    0.22400    0.84430    1.000
    C68      C        0.18010    0.36010    0.77250    1.000
    C69      C        0.23510    0.37700    0.82130    1.000
    H49      H        0.22850    0.35070    0.86080    1.000
    C70      C        0.29970    0.43360    0.81020    1.000
    H50      H        0.33890    0.44220    0.84310    1.000
    C71      C        0.25540    0.46110    0.71390    1.000
    H51      H        0.26210    0.49090    0.67580    1.000
    C72      C        0.18850    0.40630    0.71800    1.000
    H52      H        0.14940    0.40030    0.68470    1.000
    N13      N        0.61940    0.37450    0.16160    1.000
    N14      N        0.04410    0.99170    0.93370    1.000
    N15      N        0.01050    0.05270    0.89460    1.000
    N16      N        0.14700    0.05980    0.89180    1.000
    N17      N        0.23100    0.08120    0.87330    1.000
    H53      H        0.26480    0.08300    0.90760    1.000
    H54      H        0.25030    0.04100    0.84660    1.000
    N18      N        0.31250    0.47640    0.75910    1.000
    C73      C        0.35920    0.58730    0.60800    1.000
    H55      H        0.38830    0.53710    0.59680    1.000
    C74      C        0.29780    0.61680    0.56870    1.000
    H56      H        0.28440    0.58630    0.53190    1.000
    C75      C        0.25430    0.69230    0.58270    1.000
    C76      C        0.28180    0.73490    0.63500    1.000
    H57      H        0.25870    0.78870    0.64480    1.000
    C77      C        0.34260    0.70030    0.67290    1.000
    H58      H        0.35870    0.73070    0.70910    1.000
    C78      C        0.18220    0.72200    0.54480    1.000
    C79      C        0.16360    0.69190    0.48590    1.000
    H59      H        0.19900    0.65030    0.46760    1.000
    C80      C        0.72140    0.09430    0.54650    1.000
    H60      H        0.70100    0.08400    0.58740    1.000
    C81      C        0.77990    0.03960    0.52100    1.000
    H61      H        0.79810    0.99100    0.54320    1.000
    C82      C        0.81120    0.05730    0.46280    1.000
    C83      C        0.78290    0.12760    0.42970    1.000
    H62      H        0.80500    0.13880    0.38940    1.000
    C84      C        0.87530    0.00340    0.43130    1.000
    C85      C        0.92570    0.90780    0.36920    1.000
    C86      C        0.93440    0.83630    0.32540    1.000
    C87      C        0.00650    0.83490    0.28870    1.000
    H63      H        0.04590    0.88000    0.29090    1.000
    C88      C        0.02090    0.76830    0.24900    1.000
    H64      H        0.07270    0.76380    0.22690    1.000
    C89      C        0.95680    0.70630    0.24170    1.000
    H65      H        0.96170    0.66470    0.21000    1.000
    C90      C        0.88840    0.70660    0.28000    1.000
    C91      C        0.87530    0.77350    0.32010    1.000
    H66      H        0.82510    0.77600    0.34430    1.000
    C92      C        0.81990    0.63990    0.27250    1.000
    C93      C        0.76490    0.62300    0.32130    1.000
    H67      H        0.77150    0.64930    0.36080    1.000
    C94      C        0.70030    0.56640    0.31020    1.000
    H68      H        0.66110    0.55780    0.34310    1.000
    C95      C        0.74460    0.53890    0.21390    1.000
    H69      H        0.73790    0.50910    0.17580    1.000
    C96      C        0.81150    0.59370    0.21800    1.000
    H70      H        0.85060    0.59970    0.18470    1.000
    N19      N        0.38060    0.62550    0.66160    1.000
    N20      N        0.95590    0.00830    0.43370    1.000
    N21      N        0.98950    0.94730    0.39460    1.000
    N22      N        0.85300    0.94020    0.39180    1.000
    N23      N        0.76900    0.91880    0.37330    1.000
    H71      H        0.73520    0.91700    0.40760    1.000
    H72      H        0.74970    0.95900    0.34660    1.000
    N24      N        0.68750    0.52360    0.25910    1.000
    C97      C        0.58730    0.35920    0.39200    1.000
    H73      H        0.53710    0.38830    0.40320    1.000
    C98      C        0.61680    0.29780    0.43130    1.000
    H74      H        0.58630    0.28440    0.46810    1.000
    C99      C        0.69230    0.25430    0.41730    1.000
    C100     C        0.73490    0.28180    0.36500    1.000
    H75      H        0.78870    0.25870    0.35520    1.000
    C101     C        0.70030    0.34260    0.32710    1.000
    H76      H        0.73070    0.35870    0.29090    1.000
    C102     C        0.72200    0.18220    0.45520    1.000
    C103     C        0.69190    0.16360    0.51410    1.000
    H77      H        0.65030    0.19900    0.53240    1.000
    C104     C        0.09430    0.72140    0.45350    1.000
    H78      H        0.08400    0.70100    0.41260    1.000
    C105     C        0.03960    0.77990    0.47900    1.000
    H79      H        0.99100    0.79810    0.45680    1.000
    C106     C        0.05730    0.81120    0.53720    1.000
    C107     C        0.12760    0.78290    0.57030    1.000
    H80      H        0.13880    0.80500    0.61060    1.000
    C108     C        0.00340    0.87530    0.56870    1.000
    C109     C        0.90780    0.92570    0.63080    1.000
    C110     C        0.83630    0.93440    0.67460    1.000
    C111     C        0.83490    0.00650    0.71130    1.000
    H81      H        0.88000    0.04590    0.70910    1.000
    C112     C        0.76830    0.02090    0.75100    1.000
    H82      H        0.76380    0.07270    0.77310    1.000
    C113     C        0.70630    0.95680    0.75830    1.000
    H83      H        0.66470    0.96170    0.79000    1.000
    C114     C        0.70660    0.88840    0.72000    1.000
    C115     C        0.77350    0.87530    0.67990    1.000
    H84      H        0.77600    0.82510    0.65570    1.000
    C116     C        0.63990    0.81990    0.72750    1.000
    C117     C        0.62300    0.76490    0.67870    1.000
    H85      H        0.64930    0.77150    0.63920    1.000
    C118     C        0.56640    0.70030    0.68980    1.000
    H86      H        0.55780    0.66110    0.65690    1.000
    C119     C        0.53890    0.74460    0.78610    1.000
    H87      H        0.50910    0.73790    0.82420    1.000
    C120     C        0.59370    0.81150    0.78200    1.000
    H88      H        0.59970    0.85060    0.81530    1.000
    N25      N        0.62550    0.38060    0.33840    1.000
    N26      N        0.00830    0.95590    0.56630    1.000
    N27      N        0.94730    0.98950    0.60540    1.000
    N28      N        0.94020    0.85300    0.60820    1.000
    N29      N        0.91880    0.76900    0.62670    1.000
    H89      H        0.91700    0.73520    0.59240    1.000
    H90      H        0.95900    0.74970    0.65340    1.000
    N30      N        0.52360    0.68750    0.74090    1.000
    C121     C        0.41270    0.64080    0.89200    1.000
    H91      H        0.46290    0.61170    0.90320    1.000
    C122     C        0.38320    0.70220    0.93130    1.000
    H92      H        0.41370    0.71560    0.96810    1.000
    C123     C        0.30770    0.74570    0.91730    1.000
    C124     C        0.26510    0.71820    0.86500    1.000
    H93      H        0.21130    0.74130    0.85520    1.000
    C125     C        0.29970    0.65740    0.82710    1.000
    H94      H        0.26930    0.64130    0.79090    1.000
    C126     C        0.27800    0.81780    0.95520    1.000
    C127     C        0.30810    0.83640    0.01410    1.000
    H95      H        0.34970    0.80100    0.03240    1.000
    C128     C        0.90570    0.27860    0.95350    1.000
    H96      H        0.91600    0.29900    0.91260    1.000
    C129     C        0.96040    0.22010    0.97900    1.000
    H97      H        0.00900    0.20190    0.95680    1.000
    C130     C        0.94270    0.18880    0.03720    1.000
    C131     C        0.87240    0.21710    0.07030    1.000
    H98      H        0.86120    0.19500    0.11060    1.000
    C132     C        0.99660    0.12470    0.06870    1.000
    C133     C        0.09220    0.07430    0.13080    1.000
    C134     C        0.16370    0.06560    0.17460    1.000
    C135     C        0.16510    0.99350    0.21130    1.000
    H99      H        0.12000    0.95410    0.20910    1.000
    C136     C        0.23170    0.97910    0.25100    1.000
    H100     H        0.23620    0.92730    0.27310    1.000
    C137     C        0.29370    0.04320    0.25830    1.000
    H101     H        0.33530    0.03830    0.29000    1.000
    C138     C        0.29340    0.11160    0.22000    1.000
    C139     C        0.22650    0.12470    0.17990    1.000
    H102     H        0.22400    0.17490    0.15570    1.000
    C140     C        0.36010    0.18010    0.22750    1.000
    C141     C        0.37700    0.23510    0.17870    1.000
    H103     H        0.35070    0.22850    0.13920    1.000
    C142     C        0.43360    0.29970    0.18980    1.000
    H104     H        0.44220    0.33890    0.15690    1.000
    C143     C        0.46110    0.25540    0.28610    1.000
    H105     H        0.49090    0.26210    0.32420    1.000
    C144     C        0.40630    0.18850    0.28200    1.000
    H106     H        0.40030    0.14940    0.31530    1.000
    N31      N        0.37450    0.61940    0.83840    1.000
    N32      N        0.99170    0.04410    0.06630    1.000
    N33      N        0.05270    0.01050    0.10540    1.000
    N34      N        0.05980    0.14700    0.10820    1.000
    N35      N        0.08120    0.23100    0.12670    1.000
    H107     H        0.08300    0.26480    0.09240    1.000
    H108     H        0.04100    0.25030    0.15340    1.000
    N36      N        0.47640    0.31250    0.24090    1.000
    C145     C        0.85920    0.91270    0.14200    1.000
    H109     H        0.88830    0.96290    0.15320    1.000
    C146     C        0.79780    0.88320    0.18130    1.000
    H110     H        0.78440    0.91370    0.21810    1.000
    C147     C        0.75430    0.80770    0.16730    1.000
    C148     C        0.78180    0.76510    0.11500    1.000
    H111     H        0.75870    0.71130    0.10520    1.000
    C149     C        0.84260    0.79970    0.07710    1.000
    H112     H        0.85870    0.76930    0.04090    1.000
    C150     C        0.68220    0.77800    0.20520    1.000
    C151     C        0.66360    0.80810    0.26410    1.000
    H113     H        0.69900    0.84970    0.28240    1.000
    C152     C        0.22140    0.40570    0.20350    1.000
    H114     H        0.20100    0.41600    0.16260    1.000
    C153     C        0.27990    0.46040    0.22900    1.000
    H115     H        0.29810    0.50900    0.20680    1.000
    C154     C        0.31120    0.44270    0.28720    1.000
    C155     C        0.28290    0.37240    0.32030    1.000
    H116     H        0.30500    0.36120    0.36060    1.000
    C156     C        0.37530    0.49660    0.31870    1.000
    C157     C        0.42570    0.59220    0.38080    1.000
    C158     C        0.43440    0.66370    0.42460    1.000
    C159     C        0.50650    0.66510    0.46130    1.000
    H117     H        0.54590    0.62000    0.45910    1.000
    C160     C        0.52090    0.73170    0.50100    1.000
    H118     H        0.57270    0.73620    0.52310    1.000
    C161     C        0.45680    0.79370    0.50830    1.000
    H119     H        0.46170    0.83530    0.54000    1.000
    C162     C        0.38840    0.79340    0.47000    1.000
    C163     C        0.37530    0.72650    0.42990    1.000
    H120     H        0.32510    0.72400    0.40570    1.000
    C164     C        0.31990    0.86010    0.47750    1.000
    C165     C        0.26490    0.87700    0.42870    1.000
    H121     H        0.27150    0.85070    0.38920    1.000
    C166     C        0.20030    0.93360    0.43980    1.000
    H122     H        0.16110    0.94220    0.40690    1.000
    C167     C        0.24460    0.96110    0.53610    1.000
    H123     H        0.23790    0.99090    0.57420    1.000
    C168     C        0.31150    0.90630    0.53200    1.000
    H124     H        0.35060    0.90030    0.56530    1.000
    N37      N        0.88060    0.87450    0.08840    1.000
    N38      N        0.45590    0.49170    0.31630    1.000
    N39      N        0.48950    0.55270    0.35540    1.000
    N40      N        0.35300    0.55980    0.35820    1.000
    N41      N        0.26900    0.58120    0.37670    1.000
    H125     H        0.23520    0.58300    0.34240    1.000
    H126     H        0.24970    0.54100    0.40340    1.000
    N42      N        0.18750    0.97640    0.49090    1.000
    C169     C        0.14080    0.08730    0.64200    1.000
    H127     H        0.11170    0.03710    0.65320    1.000
    C170     C        0.20220    0.11680    0.68130    1.000
    H128     H        0.21560    0.08630    0.71810    1.000
    C171     C        0.24570    0.19230    0.66730    1.000
    C172     C        0.21820    0.23490    0.61500    1.000
    H129     H        0.24130    0.28870    0.60520    1.000
    C173     C        0.15740    0.20030    0.57710    1.000
    H130     H        0.14130    0.23070    0.54090    1.000
    C174     C        0.31780    0.22200    0.70520    1.000
    C175     C        0.33640    0.19190    0.76410    1.000
    H131     H        0.30100    0.15030    0.78240    1.000
    C176     C        0.77860    0.59430    0.70350    1.000
    H132     H        0.79900    0.58400    0.66260    1.000
    C177     C        0.72010    0.53960    0.72900    1.000
    H133     H        0.70190    0.49100    0.70680    1.000
    C178     C        0.68880    0.55730    0.78720    1.000
    C179     C        0.71710    0.62760    0.82030    1.000
    H134     H        0.69500    0.63880    0.86060    1.000
    C180     C        0.62470    0.50340    0.81870    1.000
    C181     C        0.57430    0.40780    0.88080    1.000
    C182     C        0.56560    0.33630    0.92460    1.000
    C183     C        0.49350    0.33490    0.96130    1.000
    H135     H        0.45410    0.38000    0.95910    1.000
    C184     C        0.47910    0.26830    0.00100    1.000
    H136     H        0.42730    0.26380    0.02310    1.000
    C185     C        0.54320    0.20630    0.00830    1.000
    H137     H        0.53830    0.16470    0.04000    1.000
    C186     C        0.61160    0.20660    0.97000    1.000
    C187     C        0.62470    0.27350    0.92990    1.000
    H138     H        0.67490    0.27600    0.90570    1.000
    C188     C        0.68010    0.13990    0.97750    1.000
    C189     C        0.73510    0.12300    0.92870    1.000
    H139     H        0.72850    0.14930    0.88920    1.000
    C190     C        0.79970    0.06640    0.93980    1.000
    H140     H        0.83890    0.05780    0.90690    1.000
    C191     C        0.75540    0.03890    0.03610    1.000
    H141     H        0.76210    0.00910    0.07420    1.000
    C192     C        0.68850    0.09370    0.03200    1.000
    H142     H        0.64940    0.09970    0.06530    1.000
    N43      N        0.11940    0.12550    0.58840    1.000
    N44      N        0.54410    0.50830    0.81630    1.000
    N45      N        0.51050    0.44730    0.85540    1.000
    N46      N        0.64700    0.44020    0.85820    1.000
    N47      N        0.73100    0.41880    0.87670    1.000
    H143     H        0.76480    0.41700    0.84240    1.000
    H144     H        0.75030    0.45900    0.90340    1.000
    N48      N        0.81250    0.02360    0.99090    1.000
    Cd1      Cd       0.43979    0.56021    0.75000    1.000
    Cd2      Cd       0.56021    0.43979    0.25000    1.000
    Cd3      Cd       0.93979    0.93979    0.00000    1.000
    Cd4      Cd       0.06021    0.06021    0.50000    1.000
