# CIF file generated by openbabel 3.1.0, see https://openbabel.org
data_I
_chemical_name_common 'image0'
_cell_length_a 13.636
_cell_length_b 13.636
_cell_length_c 19.467
_cell_angle_alpha 90
_cell_angle_beta 90
_cell_angle_gamma 90
_space_group_name_H-M_alt 'P 1'
_space_group_name_Hall 'P 1'
loop_
    _symmetry_equiv_pos_as_xyz
    x,y,z
loop_
    _atom_site_label
    _atom_site_type_symbol
    _atom_site_fract_x
    _atom_site_fract_y
    _atom_site_fract_z
    _atom_site_occupancy
    N1       N        0.43210    0.42300    0.07310    1.000
    C1       C        0.44900    0.42590    0.14250    1.000
    C2       C        0.40040    0.34410    0.17550    1.000
    H1       H        0.40310    0.32700    0.22280    1.000
    C3       C        0.35050    0.29680    0.12530    1.000
    H2       H        0.30960    0.24110    0.13130    1.000
    C4       C        0.37000    0.34550    0.06190    1.000
    C5       C        0.16080    0.25900    0.03680    1.000
    H3       H        0.14950    0.31700    0.06260    1.000
    C6       C        0.09310    0.18690    0.03520    1.000
    H4       H        0.03430    0.19560    0.06070    1.000
    C7       C        0.58760    0.50100    0.28920    1.000
    H5       H        0.64880    0.50080    0.26590    1.000
    C8       C        0.58460    0.50230    0.35970    1.000
    H6       H        0.64490    0.50490    0.38420    1.000
    N2       N        0.56790    0.57700    0.07310    1.000
    C9       C        0.55100    0.57410    0.14250    1.000
    C10      C        0.59960    0.65590    0.17550    1.000
    H7       H        0.59690    0.67300    0.22280    1.000
    C11      C        0.64950    0.70320    0.12530    1.000
    H8       H        0.69040    0.75890    0.13130    1.000
    C12      C        0.63000    0.65450    0.06190    1.000
    C13      C        0.83920    0.74100    0.03680    1.000
    H9       H        0.85050    0.68300    0.06260    1.000
    C14      C        0.90690    0.81310    0.03520    1.000
    H10      H        0.96570    0.80440    0.06070    1.000
    C15      C        0.41240    0.49900    0.28920    1.000
    H11      H        0.35120    0.49920    0.26590    1.000
    C16      C        0.41540    0.49770    0.35970    1.000
    H12      H        0.35510    0.49510    0.38420    1.000
    N3       N        0.07700    0.93210    0.57310    1.000
    C17      C        0.07410    0.94900    0.64250    1.000
    C18      C        0.15590    0.90040    0.67550    1.000
    H13      H        0.17300    0.90310    0.72280    1.000
    C19      C        0.20320    0.85050    0.62530    1.000
    H14      H        0.25890    0.80960    0.63130    1.000
    C20      C        0.15450    0.87000    0.56190    1.000
    C21      C        0.24100    0.66080    0.53680    1.000
    H15      H        0.18300    0.64950    0.56260    1.000
    C22      C        0.31310    0.59310    0.53520    1.000
    H16      H        0.30440    0.53430    0.56070    1.000
    C23      C        0.99900    0.08760    0.78920    1.000
    H17      H        0.99920    0.14880    0.76590    1.000
    C24      C        0.99770    0.08460    0.85970    1.000
    H18      H        0.99510    0.14490    0.88420    1.000
    N4       N        0.92300    0.06790    0.57310    1.000
    C25      C        0.92590    0.05100    0.64250    1.000
    C26      C        0.84410    0.09960    0.67550    1.000
    H19      H        0.82700    0.09690    0.72280    1.000
    C27      C        0.79680    0.14950    0.62530    1.000
    H20      H        0.74110    0.19040    0.63130    1.000
    C28      C        0.84550    0.13000    0.56190    1.000
    C29      C        0.75900    0.33920    0.53680    1.000
    H21      H        0.81700    0.35050    0.56260    1.000
    C30      C        0.68690    0.40690    0.53520    1.000
    H22      H        0.69560    0.46570    0.56070    1.000
    C31      C        0.00100    0.91240    0.78920    1.000
    H23      H        0.00080    0.85120    0.76590    1.000
    C32      C        0.00230    0.91540    0.85970    1.000
    H24      H        0.00490    0.85510    0.88420    1.000
    N5       N        0.06790    0.92300    0.42690    1.000
    C33      C        0.05100    0.92590    0.35750    1.000
    C34      C        0.09960    0.84410    0.32450    1.000
    H25      H        0.09690    0.82700    0.27720    1.000
    C35      C        0.14950    0.79680    0.37470    1.000
    H26      H        0.19040    0.74110    0.36870    1.000
    C36      C        0.13000    0.84550    0.43810    1.000
    C37      C        0.33920    0.75900    0.46320    1.000
    H27      H        0.35050    0.81700    0.43740    1.000
    C38      C        0.40690    0.68690    0.46480    1.000
    H28      H        0.46570    0.69560    0.43930    1.000
    C39      C        0.91240    0.00100    0.21080    1.000
    H29      H        0.85120    0.00080    0.23410    1.000
    C40      C        0.91540    0.00230    0.14030    1.000
    H30      H        0.85510    0.00490    0.11580    1.000
    N6       N        0.93210    0.07700    0.42690    1.000
    C41      C        0.94900    0.07410    0.35750    1.000
    C42      C        0.90040    0.15590    0.32450    1.000
    H31      H        0.90310    0.17300    0.27720    1.000
    C43      C        0.85050    0.20320    0.37470    1.000
    H32      H        0.80960    0.25890    0.36870    1.000
    C44      C        0.87000    0.15450    0.43810    1.000
    C45      C        0.66080    0.24100    0.46320    1.000
    H33      H        0.64950    0.18300    0.43740    1.000
    C46      C        0.59310    0.31310    0.46480    1.000
    H34      H        0.53430    0.30440    0.43930    1.000
    C47      C        0.08760    0.99900    0.21080    1.000
    H35      H        0.14880    0.99920    0.23410    1.000
    C48      C        0.08460    0.99770    0.14030    1.000
    H36      H        0.14490    0.99510    0.11580    1.000
    N7       N        0.42300    0.43210    0.92690    1.000
    C49      C        0.42590    0.44900    0.85750    1.000
    C50      C        0.34410    0.40040    0.82450    1.000
    H37      H        0.32700    0.40310    0.77720    1.000
    C51      C        0.29680    0.35050    0.87470    1.000
    H38      H        0.24110    0.30960    0.86870    1.000
    C52      C        0.34550    0.37000    0.93810    1.000
    C53      C        0.25900    0.16080    0.96320    1.000
    H39      H        0.31700    0.14950    0.93740    1.000
    C54      C        0.18690    0.09310    0.96480    1.000
    H40      H        0.19560    0.03430    0.93930    1.000
    C55      C        0.50100    0.58760    0.71080    1.000
    H41      H        0.50080    0.64880    0.73410    1.000
    C56      C        0.50230    0.58460    0.64030    1.000
    H42      H        0.50490    0.64490    0.61580    1.000
    N8       N        0.57700    0.56790    0.92690    1.000
    C57      C        0.57410    0.55100    0.85750    1.000
    C58      C        0.65590    0.59960    0.82450    1.000
    H43      H        0.67300    0.59690    0.77720    1.000
    C59      C        0.70320    0.64950    0.87470    1.000
    H44      H        0.75890    0.69040    0.86870    1.000
    C60      C        0.65450    0.63000    0.93810    1.000
    C61      C        0.74100    0.83920    0.96320    1.000
    H45      H        0.68300    0.85050    0.93740    1.000
    C62      C        0.81310    0.90690    0.96480    1.000
    H46      H        0.80440    0.96570    0.93930    1.000
    C63      C        0.49900    0.41240    0.71080    1.000
    H47      H        0.49920    0.35120    0.73410    1.000
    C64      C        0.49770    0.41540    0.64030    1.000
    H48      H        0.49510    0.35510    0.61580    1.000
    Cu1      Cu       0.50000    0.50000    0.00000    1.000
    Cu2      Cu       0.00000    0.00000    0.50000    1.000
    Cu3      Cu       0.00000    0.00000    0.00000    1.000
    Cu4      Cu       0.50000    0.50000    0.50000    1.000
    N9       N        0.10450    0.10450    0.00000    1.000
    C65      C        0.32460    0.32460    0.00000    1.000
    C66      C        0.24720    0.24720    0.00000    1.000
    N10      N        0.89550    0.89550    0.00000    1.000
    C67      C        0.67540    0.67540    0.00000    1.000
    C68      C        0.75280    0.75280    0.00000    1.000
    N11      N        0.39550    0.60450    0.50000    1.000
    C69      C        0.17540    0.82460    0.50000    1.000
    C70      C        0.25280    0.74720    0.50000    1.000
    N12      N        0.60450    0.39550    0.50000    1.000
    C71      C        0.82460    0.17540    0.50000    1.000
    C72      C        0.74720    0.25280    0.50000    1.000
    N13      N        0.50000    0.50000    0.39600    1.000
    C73      C        0.50000    0.50000    0.17550    1.000
    C74      C        0.50000    0.50000    0.25210    1.000
    N14      N        0.00000    0.00000    0.89600    1.000
    C75      C        0.00000    0.00000    0.67550    1.000
    C76      C        0.00000    0.00000    0.75210    1.000
    N15      N        0.00000    0.00000    0.10400    1.000
    C77      C        0.00000    0.00000    0.32450    1.000
    C78      C        0.00000    0.00000    0.24790    1.000
    N16      N        0.50000    0.50000    0.60400    1.000
    C79      C        0.50000    0.50000    0.82450    1.000
    C80      C        0.50000    0.50000    0.74790    1.000
