# CIF file generated by openbabel 3.1.0, see https://openbabel.org
data_I
_chemical_name_common 'image0'
_cell_length_a 13.0719
_cell_length_b 22.534
_cell_length_c 16.8938
_cell_angle_alpha 90
_cell_angle_beta 99.908
_cell_angle_gamma 90
_space_group_name_H-M_alt 'P 1'
_space_group_name_Hall 'P 1'
loop_
    _symmetry_equiv_pos_as_xyz
    x,y,z
loop_
    _atom_site_label
    _atom_site_type_symbol
    _atom_site_fract_x
    _atom_site_fract_y
    _atom_site_fract_z
    _atom_site_occupancy
    C1       C        0.71830    0.10971    0.08040    1.000
    C2       C        0.78710    0.05569    0.08990    1.000
    C3       C        0.79940    0.02291    0.02070    1.000
    H1       H        0.76650    0.03580    0.97050    1.000
    C4       C        0.85910    0.97260    0.02650    1.000
    C5       C        0.91770    0.95660    0.10080    1.000
    H2       H        0.96380    0.92490    0.10490    1.000
    C6       C        0.90530    0.98930    0.16810    1.000
    C7       C        0.83930    0.03723    0.16550    1.000
    C8       C        0.82140    0.07259    0.23720    1.000
    C9       C        0.73870    0.06321    0.27760    1.000
    C10      C        0.71990    0.09855    0.34080    1.000
    H3       H        0.66490    0.09000    0.36730    1.000
    C11      C        0.78370    0.14647    0.36380    1.000
    C12      C        0.86260    0.15989    0.32240    1.000
    H4       H        0.90170    0.19410    0.33520    1.000
    C13      C        0.88480    0.12266    0.26140    1.000
    C14      C        0.97820    0.13360    0.22270    1.000
    C15      C        0.86170    0.93300    0.95550    1.000
    C16      C        0.76240    0.18590    0.43100    1.000
    C17      C        0.57020    0.28780    0.15670    1.000
    C18      C        0.48940    0.30034    0.20810    1.000
    C19      C        0.51440    0.29160    0.29000    1.000
    H5       H        0.57830    0.27510    0.31160    1.000
    C20      C        0.44570    0.30708    0.34090    1.000
    C21      C        0.34870    0.32896    0.30770    1.000
    H6       H        0.30150    0.33950    0.34070    1.000
    C22      C        0.32270    0.33498    0.22530    1.000
    C23      C        0.39260    0.32218    0.17280    1.000
    C24      C        0.36480    0.32483    0.08350    1.000
    C25      C        0.40120    0.36850    0.03470    1.000
    C26      C        0.37260    0.36970    0.95310    1.000
    H7       H        0.39840    0.39910    0.92330    1.000
    C27      C        0.30480    0.32721    0.91470    1.000
    C28      C        0.26940    0.28288    0.96030    1.000
    H8       H        0.22390    0.25420    0.93520    1.000
    C29      C        0.30080    0.28096    0.04270    1.000
    C30      C        0.26050    0.23145    0.08930    1.000
    C31      C        0.48070    0.30200    0.42990    1.000
    C32      C        0.26350    0.33120    0.82610    1.000
    Cd1      Cd       0.48088    0.15403    0.10454    1.000
    Cd2      Cd       0.16613    0.14649    0.17128    1.000
    Cd3      Cd       0.69401    0.24815    0.04720    1.000
    N1       N        0.96730    0.97030    0.24450    1.000
    N2       N        0.66480    0.01545    0.25140    1.000
    N3       N        0.47010    0.41640    0.07140    1.000
    N4       N        0.21750    0.35890    0.19490    1.000
    O1       O        0.75110    0.15436    0.04970    1.000
    O2       O        0.63460    0.10485    0.10570    1.000
    O3       O        0.93900    0.98337    0.30750    1.000
    O4       O        0.04730    0.94090    0.24160    1.000
    O5       O        0.92800    0.89447    0.95950    1.000
    O6       O        0.79060    0.93921    0.89522    1.000
    O7       O        0.98160    0.18019    0.18150    1.000
    O8       O        0.04900    0.09645    0.23470    1.000
    O9       O        0.69640    0.97058    0.22190    1.000
    O10      O        0.57370    0.02362    0.25830    1.000
    O11      O        0.71560    0.16355    0.48210    1.000
    O12      O        0.79140    0.23798    0.43400    1.000
    O13      O        0.58350    0.23406    0.13760    1.000
    O14      O        0.61920    0.32780    0.13350    1.000
    O15      O        0.20140    0.38210    0.12920    1.000
    O16      O        0.15240    0.35388    0.23690    1.000
    O17      O        0.43470    0.33265    0.47345    1.000
    O18      O        0.55360    0.26700    0.45300    1.000
    O19      O        0.32100    0.19253    0.12226    1.000
    O20      O        0.16580    0.23099    0.09250    1.000
    O21      O        0.46320    0.43280    0.13850    1.000
    O22      O        0.52860    0.43810    0.03170    1.000
    O23      O        0.19760    0.29502    0.79463    1.000
    O24      O        0.29540    0.37336    0.78603    1.000
    C33      C        0.28170    0.60971    0.41960    1.000
    C34      C        0.21290    0.55569    0.41010    1.000
    C35      C        0.20060    0.52291    0.47930    1.000
    H9       H        0.23350    0.53580    0.52950    1.000
    C36      C        0.14090    0.47260    0.47350    1.000
    C37      C        0.08230    0.45660    0.39920    1.000
    H10      H        0.03620    0.42490    0.39510    1.000
    C38      C        0.09470    0.48930    0.33190    1.000
    C39      C        0.16070    0.53723    0.33450    1.000
    C40      C        0.17860    0.57259    0.26280    1.000
    C41      C        0.26130    0.56321    0.22240    1.000
    C42      C        0.28010    0.59855    0.15920    1.000
    H11      H        0.33510    0.59000    0.13270    1.000
    C43      C        0.21630    0.64647    0.13620    1.000
    C44      C        0.13740    0.65989    0.17760    1.000
    H12      H        0.09830    0.69410    0.16480    1.000
    C45      C        0.11520    0.62266    0.23860    1.000
    C46      C        0.02180    0.63360    0.27730    1.000
    C47      C        0.13830    0.43300    0.54450    1.000
    C48      C        0.23760    0.68590    0.06900    1.000
    C49      C        0.42980    0.78780    0.34330    1.000
    C50      C        0.51060    0.80034    0.29190    1.000
    C51      C        0.48560    0.79160    0.21000    1.000
    H13      H        0.42170    0.77510    0.18840    1.000
    C52      C        0.55430    0.80708    0.15910    1.000
    C53      C        0.65130    0.82896    0.19230    1.000
    H14      H        0.69850    0.83950    0.15930    1.000
    C54      C        0.67730    0.83498    0.27470    1.000
    C55      C        0.60740    0.82218    0.32720    1.000
    C56      C        0.63520    0.82483    0.41650    1.000
    C57      C        0.59880    0.86850    0.46530    1.000
    C58      C        0.62740    0.86970    0.54690    1.000
    H15      H        0.60160    0.89910    0.57670    1.000
    C59      C        0.69520    0.82721    0.58530    1.000
    C60      C        0.73060    0.78288    0.53970    1.000
    H16      H        0.77610    0.75420    0.56480    1.000
    C61      C        0.69920    0.78096    0.45730    1.000
    C62      C        0.73950    0.73145    0.41070    1.000
    C63      C        0.51930    0.80200    0.07010    1.000
    C64      C        0.73650    0.83120    0.67390    1.000
    Cd4      Cd       0.51912    0.65403    0.39546    1.000
    Cd5      Cd       0.83387    0.64649    0.32872    1.000
    Cd6      Cd       0.30599    0.74815    0.45280    1.000
    N5       N        0.03270    0.47030    0.25550    1.000
    N6       N        0.33520    0.51545    0.24860    1.000
    N7       N        0.52990    0.91640    0.42860    1.000
    N8       N        0.78250    0.85890    0.30510    1.000
    O25      O        0.24890    0.65436    0.45030    1.000
    O26      O        0.36540    0.60485    0.39430    1.000
    O27      O        0.06100    0.48337    0.19250    1.000
    O28      O        0.95270    0.44090    0.25840    1.000
    O29      O        0.07200    0.39447    0.54050    1.000
    O30      O        0.20940    0.43921    0.60478    1.000
    O31      O        0.01840    0.68019    0.31850    1.000
    O32      O        0.95100    0.59645    0.26530    1.000
    O33      O        0.30360    0.47058    0.27810    1.000
    O34      O        0.42630    0.52362    0.24170    1.000
    O35      O        0.28440    0.66355    0.01790    1.000
    O36      O        0.20860    0.73798    0.06600    1.000
    O37      O        0.41650    0.73406    0.36240    1.000
    O38      O        0.38080    0.82780    0.36650    1.000
    O39      O        0.79860    0.88210    0.37080    1.000
    O40      O        0.84760    0.85388    0.26310    1.000
    O41      O        0.56530    0.83265    0.02655    1.000
    O42      O        0.44640    0.76700    0.04700    1.000
    O43      O        0.67900    0.69253    0.37774    1.000
    O44      O        0.83420    0.73099    0.40750    1.000
    O45      O        0.53680    0.93280    0.36150    1.000
    O46      O        0.47140    0.93810    0.46830    1.000
    O47      O        0.80240    0.79502    0.70537    1.000
    O48      O        0.70460    0.87336    0.71397    1.000
    C65      C        0.28170    0.89029    0.91960    1.000
    C66      C        0.21290    0.94431    0.91010    1.000
    C67      C        0.20060    0.97709    0.97930    1.000
    H17      H        0.23350    0.96420    0.02950    1.000
    C68      C        0.14090    0.02740    0.97350    1.000
    C69      C        0.08230    0.04340    0.89920    1.000
    H18      H        0.03620    0.07510    0.89510    1.000
    C70      C        0.09470    0.01070    0.83190    1.000
    C71      C        0.16070    0.96277    0.83450    1.000
    C72      C        0.17860    0.92741    0.76280    1.000
    C73      C        0.26130    0.93679    0.72240    1.000
    C74      C        0.28010    0.90145    0.65920    1.000
    H19      H        0.33510    0.91000    0.63270    1.000
    C75      C        0.21630    0.85353    0.63620    1.000
    C76      C        0.13740    0.84011    0.67760    1.000
    H20      H        0.09830    0.80590    0.66480    1.000
    C77      C        0.11520    0.87734    0.73860    1.000
    C78      C        0.02180    0.86640    0.77730    1.000
    C79      C        0.13830    0.06700    0.04450    1.000
    C80      C        0.23760    0.81410    0.56900    1.000
    C81      C        0.42980    0.71220    0.84330    1.000
    C82      C        0.51060    0.69966    0.79190    1.000
    C83      C        0.48560    0.70840    0.71000    1.000
    H21      H        0.42170    0.72490    0.68840    1.000
    C84      C        0.55430    0.69292    0.65910    1.000
    C85      C        0.65130    0.67104    0.69230    1.000
    H22      H        0.69850    0.66050    0.65930    1.000
    C86      C        0.67730    0.66502    0.77470    1.000
    C87      C        0.60740    0.67782    0.82720    1.000
    C88      C        0.63520    0.67517    0.91650    1.000
    C89      C        0.59880    0.63150    0.96530    1.000
    C90      C        0.62740    0.63030    0.04690    1.000
    H23      H        0.60160    0.60090    0.07670    1.000
    C91      C        0.69520    0.67279    0.08530    1.000
    C92      C        0.73060    0.71712    0.03970    1.000
    H24      H        0.77610    0.74580    0.06480    1.000
    C93      C        0.69920    0.71904    0.95730    1.000
    C94      C        0.73950    0.76855    0.91070    1.000
    C95      C        0.51930    0.69800    0.57010    1.000
    C96      C        0.73650    0.66880    0.17390    1.000
    Cd7      Cd       0.51912    0.84597    0.89546    1.000
    Cd8      Cd       0.83387    0.85351    0.82872    1.000
    Cd9      Cd       0.30599    0.75185    0.95280    1.000
    N9       N        0.03270    0.02970    0.75550    1.000
    N10      N        0.33520    0.98455    0.74860    1.000
    N11      N        0.52990    0.58360    0.92860    1.000
    N12      N        0.78250    0.64110    0.80510    1.000
    O49      O        0.24890    0.84564    0.95030    1.000
    O50      O        0.36540    0.89515    0.89430    1.000
    O51      O        0.06100    0.01663    0.69250    1.000
    O52      O        0.95270    0.05910    0.75840    1.000
    O53      O        0.07200    0.10553    0.04050    1.000
    O54      O        0.20940    0.06079    0.10478    1.000
    O55      O        0.01840    0.81981    0.81850    1.000
    O56      O        0.95100    0.90355    0.76530    1.000
    O57      O        0.30360    0.02942    0.77810    1.000
    O58      O        0.42630    0.97638    0.74170    1.000
    O59      O        0.28440    0.83645    0.51790    1.000
    O60      O        0.20860    0.76202    0.56600    1.000
    O61      O        0.41650    0.76594    0.86240    1.000
    O62      O        0.38080    0.67220    0.86650    1.000
    O63      O        0.79860    0.61790    0.87080    1.000
    O64      O        0.84760    0.64612    0.76310    1.000
    O65      O        0.56530    0.66735    0.52655    1.000
    O66      O        0.44640    0.73300    0.54700    1.000
    O67      O        0.67900    0.80747    0.87774    1.000
    O68      O        0.83420    0.76901    0.90750    1.000
    O69      O        0.53680    0.56720    0.86150    1.000
    O70      O        0.47140    0.56190    0.96830    1.000
    O71      O        0.80240    0.70498    0.20537    1.000
    O72      O        0.70460    0.62664    0.21397    1.000
    C97      C        0.71830    0.39029    0.58040    1.000
    C98      C        0.78710    0.44431    0.58990    1.000
    C99      C        0.79940    0.47709    0.52070    1.000
    H25      H        0.76650    0.46420    0.47050    1.000
    C100     C        0.85910    0.52740    0.52650    1.000
    C101     C        0.91770    0.54340    0.60080    1.000
    H26      H        0.96380    0.57510    0.60490    1.000
    C102     C        0.90530    0.51070    0.66810    1.000
    C103     C        0.83930    0.46277    0.66550    1.000
    C104     C        0.82140    0.42741    0.73720    1.000
    C105     C        0.73870    0.43679    0.77760    1.000
    C106     C        0.71990    0.40145    0.84080    1.000
    H27      H        0.66490    0.41000    0.86730    1.000
    C107     C        0.78370    0.35353    0.86380    1.000
    C108     C        0.86260    0.34011    0.82240    1.000
    H28      H        0.90170    0.30590    0.83520    1.000
    C109     C        0.88480    0.37734    0.76140    1.000
    C110     C        0.97820    0.36640    0.72270    1.000
    C111     C        0.86170    0.56700    0.45550    1.000
    C112     C        0.76240    0.31410    0.93100    1.000
    C113     C        0.57020    0.21220    0.65670    1.000
    C114     C        0.48940    0.19966    0.70810    1.000
    C115     C        0.51440    0.20840    0.79000    1.000
    H29      H        0.57830    0.22490    0.81160    1.000
    C116     C        0.44570    0.19292    0.84090    1.000
    C117     C        0.34870    0.17104    0.80770    1.000
    H30      H        0.30150    0.16050    0.84070    1.000
    C118     C        0.32270    0.16502    0.72530    1.000
    C119     C        0.39260    0.17782    0.67280    1.000
    C120     C        0.36480    0.17517    0.58350    1.000
    C121     C        0.40120    0.13150    0.53470    1.000
    C122     C        0.37260    0.13030    0.45310    1.000
    H31      H        0.39840    0.10090    0.42330    1.000
    C123     C        0.30480    0.17279    0.41470    1.000
    C124     C        0.26940    0.21712    0.46030    1.000
    H32      H        0.22390    0.24580    0.43520    1.000
    C125     C        0.30080    0.21904    0.54270    1.000
    C126     C        0.26050    0.26855    0.58930    1.000
    C127     C        0.48070    0.19800    0.92990    1.000
    C128     C        0.26350    0.16880    0.32610    1.000
    Cd10     Cd       0.48088    0.34597    0.60454    1.000
    Cd11     Cd       0.16613    0.35351    0.67128    1.000
    Cd12     Cd       0.69401    0.25185    0.54720    1.000
    N13      N        0.96730    0.52970    0.74450    1.000
    N14      N        0.66480    0.48455    0.75140    1.000
    N15      N        0.47010    0.08360    0.57140    1.000
    N16      N        0.21750    0.14110    0.69490    1.000
    O73      O        0.75110    0.34564    0.54970    1.000
    O74      O        0.63460    0.39515    0.60570    1.000
    O75      O        0.93900    0.51663    0.80750    1.000
    O76      O        0.04730    0.55910    0.74160    1.000
    O77      O        0.92800    0.60553    0.45950    1.000
    O78      O        0.79060    0.56079    0.39522    1.000
    O79      O        0.98160    0.31981    0.68150    1.000
    O80      O        0.04900    0.40355    0.73470    1.000
    O81      O        0.69640    0.52942    0.72190    1.000
    O82      O        0.57370    0.47638    0.75830    1.000
    O83      O        0.71560    0.33645    0.98210    1.000
    O84      O        0.79140    0.26202    0.93400    1.000
    O85      O        0.58350    0.26594    0.63760    1.000
    O86      O        0.61920    0.17220    0.63350    1.000
    O87      O        0.20140    0.11790    0.62920    1.000
    O88      O        0.15240    0.14612    0.73690    1.000
    O89      O        0.43470    0.16735    0.97345    1.000
    O90      O        0.55360    0.23300    0.95300    1.000
    O91      O        0.32100    0.30747    0.62226    1.000
    O92      O        0.16580    0.26901    0.59250    1.000
    O93      O        0.46320    0.06720    0.63850    1.000
    O94      O        0.52860    0.06190    0.53170    1.000
    O95      O        0.19760    0.20498    0.29463    1.000
    O96      O        0.29540    0.12664    0.28603    1.000
