# CIF file generated by openbabel 3.1.0, see https://openbabel.org
data_I
_chemical_name_common 'NIVWIY_clean'
_cell_length_a 4.7931
_cell_length_b 7.8941
_cell_length_c 8.5315
_cell_angle_alpha 117.558
_cell_angle_beta 90
_cell_angle_gamma 90
_space_group_name_H-M_alt 'P 1'
_space_group_name_Hall 'P 1'
loop_
    _symmetry_equiv_pos_as_xyz
    x,y,z
loop_
    _atom_site_label
    _atom_site_type_symbol
    _atom_site_fract_x
    _atom_site_fract_y
    _atom_site_fract_z
    _atom_site_occupancy
    Gd1      Gd       0.50000    0.79282    0.58564    1.000
    Gd2      Gd       0.50000    0.20718    0.41436    1.000
    C1       C        0.00000    0.41710    0.44980    1.000
    C2       C        0.00000    0.96730    0.55020    1.000
    C3       C        0.50000    0.89660    0.00000    1.000
    C4       C        0.50000    0.09170    0.00000    1.000
    O1       O        0.76440    0.49950    0.49160    1.000
    O2       O        0.23560    0.00790    0.50840    1.000
    O3       O        0.76440    0.00790    0.50840    1.000
    O4       O        0.23560    0.49950    0.49160    1.000
    O5       O        0.50000    0.90240    0.14900    1.000
    O6       O        0.50000    0.23950    0.14660    1.000
    O7       O        0.50000    0.75340    0.85100    1.000
    O8       O        0.50000    0.09290    0.85340    1.000
    O9       O        0.00000    0.23270    0.36120    1.000
    O10      O        0.00000    0.87150    0.63880    1.000
