# CIF file generated by openbabel 3.1.0, see https://openbabel.org
data_I
_chemical_name_common 'image0'
_cell_length_a 22.002
_cell_length_b 16.7356
_cell_length_c 25.5607
_cell_angle_alpha 90
_cell_angle_beta 115.199
_cell_angle_gamma 90
_space_group_name_H-M_alt 'P 1'
_space_group_name_Hall 'P 1'
loop_
    _symmetry_equiv_pos_as_xyz
    x,y,z
loop_
    _atom_site_label
    _atom_site_type_symbol
    _atom_site_fract_x
    _atom_site_fract_y
    _atom_site_fract_z
    _atom_site_occupancy
    Ag1      Ag       0.84423    0.95667    0.36683    1.000
    Ag2      Ag       0.82171    0.25616    0.86644    1.000
    C1       C        0.09760    0.47160    0.99910    1.000
    C2       C        0.53260    0.31030    0.40900    1.000
    H1       H        0.55400    0.28960    0.38760    1.000
    C3       C        0.62340    0.25570    0.50030    1.000
    C4       C        0.00370    0.38500    0.99460    1.000
    H2       H        0.02350    0.38340    0.03480    1.000
    C5       C        0.55970    0.30020    0.46800    1.000
    C6       C        0.18170    0.55260    0.00530    1.000
    C7       C        0.03310    0.42740    0.96500    1.000
    C8       C        0.79750    0.08370    0.50370    1.000
    H3       H        0.81970    0.08770    0.54370    1.000
    C9       C        0.70940    0.22510    0.58580    1.000
    C10      C        0.94420    0.34480    0.96290    1.000
    H4       H        0.92460    0.31690    0.98320    1.000
    C11      C        0.27700    0.63850    0.00830    1.000
    H5       H        0.29780    0.63480    0.04850    1.000
    C12      C        0.22020    0.65270    0.89080    1.000
    H6       H        0.20040    0.65740    0.85080    1.000
    C13      C        0.74270    0.23670    0.64950    1.000
    C14      C        0.73520    0.12120    0.47300    1.000
    C15      C        0.17880    0.45580    0.17900    1.000
    H7       H        0.13480    0.43800    0.15870    1.000
    C16      C        0.21410    0.60150    0.97580    1.000
    C17      C        0.73540    0.06430    0.38740    1.000
    H8       H        0.71380    0.05730    0.34760    1.000
    C18      C        0.21210    0.49140    0.15060    1.000
    C19      C        0.52580    0.33430    0.49760    1.000
    H9       H        0.54320    0.33040    0.53760    1.000
    C20      C        0.46720    0.37350    0.46750    1.000
    H10      H        0.44530    0.39590    0.48800    1.000
    C21      C        0.17990    0.50210    0.08620    1.000
    C22      C        0.18630    0.60970    0.91710    1.000
    H11      H        0.14480    0.58670    0.89460    1.000
    C23      C        0.30680    0.68070    0.97820    1.000
    H12      H        0.34780    0.70550    0.99930    1.000
    C24      C        0.70380    0.10940    0.41370    1.000
    H13      H        0.66190    0.13170    0.39190    1.000
    C25      C        0.70510    0.17180    0.50340    1.000
    C26      C        0.47290    0.35190    0.38220    1.000
    H14      H        0.45560    0.35940    0.34240    1.000
    C27      C        0.82500    0.04060    0.47290    1.000
    H15      H        0.86700    0.01750    0.49340    1.000
    C28      C        0.00150    0.42770    0.90540    1.000
    H16      H        0.01920    0.45710    0.88420    1.000
    C29      C        0.30560    0.50480    0.24050    1.000
    H17      H        0.34950    0.52230    0.26150    1.000
    C30      C        0.21140    0.44680    0.23850    1.000
    H18      H        0.18820    0.42320    0.25760    1.000
    C31      C        0.94380    0.38430    0.87780    1.000
    H19      H        0.92450    0.38260    0.83760    1.000
    C32      C        0.74480    0.29480    0.73500    1.000
    H20      H        0.72620    0.33000    0.75240    1.000
    C33      C        0.27770    0.51650    0.18180    1.000
    H21      H        0.30190    0.54030    0.16380    1.000
    C34      C        0.71420    0.28690    0.67620    1.000
    H22      H        0.67490    0.31460    0.65440    1.000
    C35      C        0.80250    0.19940    0.68360    1.000
    H23      H        0.82500    0.16830    0.66730    1.000
    C36      C        0.82750    0.20980    0.74210    1.000
    H24      H        0.86700    0.18300    0.76480    1.000
    N1       N        0.79550    0.03000    0.41630    1.000
    N2       N        0.43900    0.38170    0.41000    1.000
    N3       N        0.80060    0.25420    0.76900    1.000
    N4       N        0.64780    0.21010    0.47080    1.000
    N5       N        0.65250    0.26600    0.55740    1.000
    N6       N        0.73750    0.17740    0.56090    1.000
    N7       N        0.27930    0.68720    0.92060    1.000
    N8       N        0.91340    0.34370    0.90560    1.000
    N9       N        0.27490    0.47040    0.26980    1.000
    N10      N        0.12550    0.51290    0.97180    1.000
    N11      N        0.12300    0.46300    0.05690    1.000
    N12      N        0.21090    0.54900    0.06310    1.000
    Ag3      Ag       0.34423    0.45667    0.36683    1.000
    Ag4      Ag       0.32171    0.75616    0.86644    1.000
    C37      C        0.59760    0.97160    0.99910    1.000
    C38      C        0.03260    0.81030    0.40900    1.000
    H25      H        0.05400    0.78960    0.38760    1.000
    C39      C        0.12340    0.75570    0.50030    1.000
    C40      C        0.50370    0.88500    0.99460    1.000
    H26      H        0.52350    0.88340    0.03480    1.000
    C41      C        0.05970    0.80020    0.46800    1.000
    C42      C        0.68170    0.05260    0.00530    1.000
    C43      C        0.53310    0.92740    0.96500    1.000
    C44      C        0.29750    0.58370    0.50370    1.000
    H27      H        0.31970    0.58770    0.54370    1.000
    C45      C        0.20940    0.72510    0.58580    1.000
    C46      C        0.44420    0.84480    0.96290    1.000
    H28      H        0.42460    0.81690    0.98320    1.000
    C47      C        0.77700    0.13850    0.00830    1.000
    H29      H        0.79780    0.13480    0.04850    1.000
    C48      C        0.72020    0.15270    0.89080    1.000
    H30      H        0.70040    0.15740    0.85080    1.000
    C49      C        0.24270    0.73670    0.64950    1.000
    C50      C        0.23520    0.62120    0.47300    1.000
    C51      C        0.67880    0.95580    0.17900    1.000
    H31      H        0.63480    0.93800    0.15870    1.000
    C52      C        0.71410    0.10150    0.97580    1.000
    C53      C        0.23540    0.56430    0.38740    1.000
    H32      H        0.21380    0.55730    0.34760    1.000
    C54      C        0.71210    0.99140    0.15060    1.000
    C55      C        0.02580    0.83430    0.49760    1.000
    H33      H        0.04320    0.83040    0.53760    1.000
    C56      C        0.96720    0.87350    0.46750    1.000
    H34      H        0.94530    0.89590    0.48800    1.000
    C57      C        0.67990    0.00210    0.08620    1.000
    C58      C        0.68630    0.10970    0.91710    1.000
    H35      H        0.64480    0.08670    0.89460    1.000
    C59      C        0.80680    0.18070    0.97820    1.000
    H36      H        0.84780    0.20550    0.99930    1.000
    C60      C        0.20380    0.60940    0.41370    1.000
    H37      H        0.16190    0.63170    0.39190    1.000
    C61      C        0.20510    0.67180    0.50340    1.000
    C62      C        0.97290    0.85190    0.38220    1.000
    H38      H        0.95560    0.85940    0.34240    1.000
    C63      C        0.32500    0.54060    0.47290    1.000
    H39      H        0.36700    0.51750    0.49340    1.000
    C64      C        0.50150    0.92770    0.90540    1.000
    H40      H        0.51920    0.95710    0.88420    1.000
    C65      C        0.80560    0.00480    0.24050    1.000
    H41      H        0.84950    0.02230    0.26150    1.000
    C66      C        0.71140    0.94680    0.23850    1.000
    H42      H        0.68820    0.92320    0.25760    1.000
    C67      C        0.44380    0.88430    0.87780    1.000
    H43      H        0.42450    0.88260    0.83760    1.000
    C68      C        0.24480    0.79480    0.73500    1.000
    H44      H        0.22620    0.83000    0.75240    1.000
    C69      C        0.77770    0.01650    0.18180    1.000
    H45      H        0.80190    0.04030    0.16380    1.000
    C70      C        0.21420    0.78690    0.67620    1.000
    H46      H        0.17490    0.81460    0.65440    1.000
    C71      C        0.30250    0.69940    0.68360    1.000
    H47      H        0.32500    0.66830    0.66730    1.000
    C72      C        0.32750    0.70980    0.74210    1.000
    H48      H        0.36700    0.68300    0.76480    1.000
    N13      N        0.29550    0.53000    0.41630    1.000
    N14      N        0.93900    0.88170    0.41000    1.000
    N15      N        0.30060    0.75420    0.76900    1.000
    N16      N        0.14780    0.71010    0.47080    1.000
    N17      N        0.15250    0.76600    0.55740    1.000
    N18      N        0.23750    0.67740    0.56090    1.000
    N19      N        0.77930    0.18720    0.92060    1.000
    N20      N        0.41340    0.84370    0.90560    1.000
    N21      N        0.77490    0.97040    0.26980    1.000
    N22      N        0.62550    0.01290    0.97180    1.000
    N23      N        0.62300    0.96300    0.05690    1.000
    N24      N        0.71090    0.04900    0.06310    1.000
    Ag5      Ag       0.15577    0.95667    0.13317    1.000
    Ag6      Ag       0.17829    0.25616    0.63356    1.000
    C73      C        0.90240    0.47160    0.50090    1.000
    C74      C        0.46740    0.31030    0.09100    1.000
    H49      H        0.44600    0.28960    0.11240    1.000
    C75      C        0.37660    0.25570    0.99970    1.000
    C76      C        0.99630    0.38500    0.50540    1.000
    H50      H        0.97650    0.38340    0.46520    1.000
    C77      C        0.44030    0.30020    0.03200    1.000
    C78      C        0.81830    0.55260    0.49470    1.000
    C79      C        0.96690    0.42740    0.53500    1.000
    C80      C        0.20250    0.08370    0.99630    1.000
    H51      H        0.18030    0.08770    0.95630    1.000
    C81      C        0.29060    0.22510    0.91420    1.000
    C82      C        0.05580    0.34480    0.53710    1.000
    H52      H        0.07540    0.31690    0.51680    1.000
    C83      C        0.72300    0.63850    0.49170    1.000
    H53      H        0.70220    0.63480    0.45150    1.000
    C84      C        0.77980    0.65270    0.60920    1.000
    H54      H        0.79960    0.65740    0.64920    1.000
    C85      C        0.25730    0.23670    0.85050    1.000
    C86      C        0.26480    0.12120    0.02700    1.000
    C87      C        0.82120    0.45580    0.32100    1.000
    H55      H        0.86520    0.43800    0.34130    1.000
    C88      C        0.78590    0.60150    0.52420    1.000
    C89      C        0.26460    0.06430    0.11260    1.000
    H56      H        0.28620    0.05730    0.15240    1.000
    C90      C        0.78790    0.49140    0.34940    1.000
    C91      C        0.47420    0.33430    0.00240    1.000
    H57      H        0.45680    0.33040    0.96240    1.000
    C92      C        0.53280    0.37350    0.03250    1.000
    H58      H        0.55470    0.39590    0.01200    1.000
    C93      C        0.82010    0.50210    0.41380    1.000
    C94      C        0.81370    0.60970    0.58290    1.000
    H59      H        0.85520    0.58670    0.60540    1.000
    C95      C        0.69320    0.68070    0.52180    1.000
    H60      H        0.65220    0.70550    0.50070    1.000
    C96      C        0.29620    0.10940    0.08630    1.000
    H61      H        0.33810    0.13170    0.10810    1.000
    C97      C        0.29490    0.17180    0.99660    1.000
    C98      C        0.52710    0.35190    0.11780    1.000
    H62      H        0.54440    0.35940    0.15760    1.000
    C99      C        0.17500    0.04060    0.02710    1.000
    H63      H        0.13300    0.01750    0.00660    1.000
    C100     C        0.99850    0.42770    0.59460    1.000
    H64      H        0.98080    0.45710    0.61580    1.000
    C101     C        0.69440    0.50480    0.25950    1.000
    H65      H        0.65050    0.52230    0.23850    1.000
    C102     C        0.78860    0.44680    0.26150    1.000
    H66      H        0.81180    0.42320    0.24240    1.000
    C103     C        0.05620    0.38430    0.62220    1.000
    H67      H        0.07550    0.38260    0.66240    1.000
    C104     C        0.25520    0.29480    0.76500    1.000
    H68      H        0.27380    0.33000    0.74760    1.000
    C105     C        0.72230    0.51650    0.31820    1.000
    H69      H        0.69810    0.54030    0.33620    1.000
    C106     C        0.28580    0.28690    0.82380    1.000
    H70      H        0.32510    0.31460    0.84560    1.000
    C107     C        0.19750    0.19940    0.81640    1.000
    H71      H        0.17500    0.16830    0.83270    1.000
    C108     C        0.17250    0.20980    0.75790    1.000
    H72      H        0.13300    0.18300    0.73520    1.000
    N25      N        0.20450    0.03000    0.08370    1.000
    N26      N        0.56100    0.38170    0.09000    1.000
    N27      N        0.19940    0.25420    0.73100    1.000
    N28      N        0.35220    0.21010    0.02920    1.000
    N29      N        0.34750    0.26600    0.94260    1.000
    N30      N        0.26250    0.17740    0.93910    1.000
    N31      N        0.72070    0.68720    0.57940    1.000
    N32      N        0.08660    0.34370    0.59440    1.000
    N33      N        0.72510    0.47040    0.23020    1.000
    N34      N        0.87450    0.51290    0.52820    1.000
    N35      N        0.87700    0.46300    0.44310    1.000
    N36      N        0.78910    0.54900    0.43690    1.000
    Ag7      Ag       0.65577    0.45667    0.13317    1.000
    Ag8      Ag       0.67829    0.75616    0.63356    1.000
    C109     C        0.40240    0.97160    0.50090    1.000
    C110     C        0.96740    0.81030    0.09100    1.000
    H73      H        0.94600    0.78960    0.11240    1.000
    C111     C        0.87660    0.75570    0.99970    1.000
    C112     C        0.49630    0.88500    0.50540    1.000
    H74      H        0.47650    0.88340    0.46520    1.000
    C113     C        0.94030    0.80020    0.03200    1.000
    C114     C        0.31830    0.05260    0.49470    1.000
    C115     C        0.46690    0.92740    0.53500    1.000
    C116     C        0.70250    0.58370    0.99630    1.000
    H75      H        0.68030    0.58770    0.95630    1.000
    C117     C        0.79060    0.72510    0.91420    1.000
    C118     C        0.55580    0.84480    0.53710    1.000
    H76      H        0.57540    0.81690    0.51680    1.000
    C119     C        0.22300    0.13850    0.49170    1.000
    H77      H        0.20220    0.13480    0.45150    1.000
    C120     C        0.27980    0.15270    0.60920    1.000
    H78      H        0.29960    0.15740    0.64920    1.000
    C121     C        0.75730    0.73670    0.85050    1.000
    C122     C        0.76480    0.62120    0.02700    1.000
    C123     C        0.32120    0.95580    0.32100    1.000
    H79      H        0.36520    0.93800    0.34130    1.000
    C124     C        0.28590    0.10150    0.52420    1.000
    C125     C        0.76460    0.56430    0.11260    1.000
    H80      H        0.78620    0.55730    0.15240    1.000
    C126     C        0.28790    0.99140    0.34940    1.000
    C127     C        0.97420    0.83430    0.00240    1.000
    H81      H        0.95680    0.83040    0.96240    1.000
    C128     C        0.03280    0.87350    0.03250    1.000
    H82      H        0.05470    0.89590    0.01200    1.000
    C129     C        0.32010    0.00210    0.41380    1.000
    C130     C        0.31370    0.10970    0.58290    1.000
    H83      H        0.35520    0.08670    0.60540    1.000
    C131     C        0.19320    0.18070    0.52180    1.000
    H84      H        0.15220    0.20550    0.50070    1.000
    C132     C        0.79620    0.60940    0.08630    1.000
    H85      H        0.83810    0.63170    0.10810    1.000
    C133     C        0.79490    0.67180    0.99660    1.000
    C134     C        0.02710    0.85190    0.11780    1.000
    H86      H        0.04440    0.85940    0.15760    1.000
    C135     C        0.67500    0.54060    0.02710    1.000
    H87      H        0.63300    0.51750    0.00660    1.000
    C136     C        0.49850    0.92770    0.59460    1.000
    H88      H        0.48080    0.95710    0.61580    1.000
    C137     C        0.19440    0.00480    0.25950    1.000
    H89      H        0.15050    0.02230    0.23850    1.000
    C138     C        0.28860    0.94680    0.26150    1.000
    H90      H        0.31180    0.92320    0.24240    1.000
    C139     C        0.55620    0.88430    0.62220    1.000
    H91      H        0.57550    0.88260    0.66240    1.000
    C140     C        0.75520    0.79480    0.76500    1.000
    H92      H        0.77380    0.83000    0.74760    1.000
    C141     C        0.22230    0.01650    0.31820    1.000
    H93      H        0.19810    0.04030    0.33620    1.000
    C142     C        0.78580    0.78690    0.82380    1.000
    H94      H        0.82510    0.81460    0.84560    1.000
    C143     C        0.69750    0.69940    0.81640    1.000
    H95      H        0.67500    0.66830    0.83270    1.000
    C144     C        0.67250    0.70980    0.75790    1.000
    H96      H        0.63300    0.68300    0.73520    1.000
    N37      N        0.70450    0.53000    0.08370    1.000
    N38      N        0.06100    0.88170    0.09000    1.000
    N39      N        0.69940    0.75420    0.73100    1.000
    N40      N        0.85220    0.71010    0.02920    1.000
    N41      N        0.84750    0.76600    0.94260    1.000
    N42      N        0.76250    0.67740    0.93910    1.000
    N43      N        0.22070    0.18720    0.57940    1.000
    N44      N        0.58660    0.84370    0.59440    1.000
    N45      N        0.22510    0.97040    0.23020    1.000
    N46      N        0.37450    0.01290    0.52820    1.000
    N47      N        0.37700    0.96300    0.44310    1.000
    N48      N        0.28910    0.04900    0.43690    1.000
    Ag9      Ag       0.15577    0.04333    0.63317    1.000
    Ag10     Ag       0.17829    0.74384    0.13356    1.000
    C145     C        0.90240    0.52840    0.00090    1.000
    C146     C        0.46740    0.68970    0.59100    1.000
    H97      H        0.44600    0.71040    0.61240    1.000
    C147     C        0.37660    0.74430    0.49970    1.000
    C148     C        0.99630    0.61500    0.00540    1.000
    H98      H        0.97650    0.61660    0.96520    1.000
    C149     C        0.44030    0.69980    0.53200    1.000
    C150     C        0.81830    0.44740    0.99470    1.000
    C151     C        0.96690    0.57260    0.03500    1.000
    C152     C        0.20250    0.91630    0.49630    1.000
    H99      H        0.18030    0.91230    0.45630    1.000
    C153     C        0.29060    0.77490    0.41420    1.000
    C154     C        0.05580    0.65520    0.03710    1.000
    H100     H        0.07540    0.68310    0.01680    1.000
    C155     C        0.72300    0.36150    0.99170    1.000
    H101     H        0.70220    0.36520    0.95150    1.000
    C156     C        0.77980    0.34730    0.10920    1.000
    H102     H        0.79960    0.34260    0.14920    1.000
    C157     C        0.25730    0.76330    0.35050    1.000
    C158     C        0.26480    0.87880    0.52700    1.000
    C159     C        0.82120    0.54420    0.82100    1.000
    H103     H        0.86520    0.56200    0.84130    1.000
    C160     C        0.78590    0.39850    0.02420    1.000
    C161     C        0.26460    0.93570    0.61260    1.000
    H104     H        0.28620    0.94270    0.65240    1.000
    C162     C        0.78790    0.50860    0.84940    1.000
    C163     C        0.47420    0.66570    0.50240    1.000
    H105     H        0.45680    0.66960    0.46240    1.000
    C164     C        0.53280    0.62650    0.53250    1.000
    H106     H        0.55470    0.60410    0.51200    1.000
    C165     C        0.82010    0.49790    0.91380    1.000
    C166     C        0.81370    0.39030    0.08290    1.000
    H107     H        0.85520    0.41330    0.10540    1.000
    C167     C        0.69320    0.31930    0.02180    1.000
    H108     H        0.65220    0.29450    0.00070    1.000
    C168     C        0.29620    0.89060    0.58630    1.000
    H109     H        0.33810    0.86830    0.60810    1.000
    C169     C        0.29490    0.82820    0.49660    1.000
    C170     C        0.52710    0.64810    0.61780    1.000
    H110     H        0.54440    0.64060    0.65760    1.000
    C171     C        0.17500    0.95940    0.52710    1.000
    H111     H        0.13300    0.98250    0.50660    1.000
    C172     C        0.99850    0.57230    0.09460    1.000
    H112     H        0.98080    0.54290    0.11580    1.000
    C173     C        0.69440    0.49520    0.75950    1.000
    H113     H        0.65050    0.47770    0.73850    1.000
    C174     C        0.78860    0.55320    0.76150    1.000
    H114     H        0.81180    0.57680    0.74240    1.000
    C175     C        0.05620    0.61570    0.12220    1.000
    H115     H        0.07550    0.61740    0.16240    1.000
    C176     C        0.25520    0.70520    0.26500    1.000
    H116     H        0.27380    0.67000    0.24760    1.000
    C177     C        0.72230    0.48350    0.81820    1.000
    H117     H        0.69810    0.45970    0.83620    1.000
    C178     C        0.28580    0.71310    0.32380    1.000
    H118     H        0.32510    0.68540    0.34560    1.000
    C179     C        0.19750    0.80060    0.31640    1.000
    H119     H        0.17500    0.83170    0.33270    1.000
    C180     C        0.17250    0.79020    0.25790    1.000
    H120     H        0.13300    0.81700    0.23520    1.000
    N49      N        0.20450    0.97000    0.58370    1.000
    N50      N        0.56100    0.61830    0.59000    1.000
    N51      N        0.19940    0.74580    0.23100    1.000
    N52      N        0.35220    0.78990    0.52920    1.000
    N53      N        0.34750    0.73400    0.44260    1.000
    N54      N        0.26250    0.82260    0.43910    1.000
    N55      N        0.72070    0.31280    0.07940    1.000
    N56      N        0.08660    0.65630    0.09440    1.000
    N57      N        0.72510    0.52960    0.73020    1.000
    N58      N        0.87450    0.48710    0.02820    1.000
    N59      N        0.87700    0.53700    0.94310    1.000
    N60      N        0.78910    0.45100    0.93690    1.000
    Ag11     Ag       0.65577    0.54333    0.63317    1.000
    Ag12     Ag       0.67829    0.24384    0.13356    1.000
    C181     C        0.40240    0.02840    0.00090    1.000
    C182     C        0.96740    0.18970    0.59100    1.000
    H121     H        0.94600    0.21040    0.61240    1.000
    C183     C        0.87660    0.24430    0.49970    1.000
    C184     C        0.49630    0.11500    0.00540    1.000
    H122     H        0.47650    0.11660    0.96520    1.000
    C185     C        0.94030    0.19980    0.53200    1.000
    C186     C        0.31830    0.94740    0.99470    1.000
    C187     C        0.46690    0.07260    0.03500    1.000
    C188     C        0.70250    0.41630    0.49630    1.000
    H123     H        0.68030    0.41230    0.45630    1.000
    C189     C        0.79060    0.27490    0.41420    1.000
    C190     C        0.55580    0.15520    0.03710    1.000
    H124     H        0.57540    0.18310    0.01680    1.000
    C191     C        0.22300    0.86150    0.99170    1.000
    H125     H        0.20220    0.86520    0.95150    1.000
    C192     C        0.27980    0.84730    0.10920    1.000
    H126     H        0.29960    0.84260    0.14920    1.000
    C193     C        0.75730    0.26330    0.35050    1.000
    C194     C        0.76480    0.37880    0.52700    1.000
    C195     C        0.32120    0.04420    0.82100    1.000
    H127     H        0.36520    0.06200    0.84130    1.000
    C196     C        0.28590    0.89850    0.02420    1.000
    C197     C        0.76460    0.43570    0.61260    1.000
    H128     H        0.78620    0.44270    0.65240    1.000
    C198     C        0.28790    0.00860    0.84940    1.000
    C199     C        0.97420    0.16570    0.50240    1.000
    H129     H        0.95680    0.16960    0.46240    1.000
    C200     C        0.03280    0.12650    0.53250    1.000
    H130     H        0.05470    0.10410    0.51200    1.000
    C201     C        0.32010    0.99790    0.91380    1.000
    C202     C        0.31370    0.89030    0.08290    1.000
    H131     H        0.35520    0.91330    0.10540    1.000
    C203     C        0.19320    0.81930    0.02180    1.000
    H132     H        0.15220    0.79450    0.00070    1.000
    C204     C        0.79620    0.39060    0.58630    1.000
    H133     H        0.83810    0.36830    0.60810    1.000
    C205     C        0.79490    0.32820    0.49660    1.000
    C206     C        0.02710    0.14810    0.61780    1.000
    H134     H        0.04440    0.14060    0.65760    1.000
    C207     C        0.67500    0.45940    0.52710    1.000
    H135     H        0.63300    0.48250    0.50660    1.000
    C208     C        0.49850    0.07230    0.09460    1.000
    H136     H        0.48080    0.04290    0.11580    1.000
    C209     C        0.19440    0.99520    0.75950    1.000
    H137     H        0.15050    0.97770    0.73850    1.000
    C210     C        0.28860    0.05320    0.76150    1.000
    H138     H        0.31180    0.07680    0.74240    1.000
    C211     C        0.55620    0.11570    0.12220    1.000
    H139     H        0.57550    0.11740    0.16240    1.000
    C212     C        0.75520    0.20520    0.26500    1.000
    H140     H        0.77380    0.17000    0.24760    1.000
    C213     C        0.22230    0.98350    0.81820    1.000
    H141     H        0.19810    0.95970    0.83620    1.000
    C214     C        0.78580    0.21310    0.32380    1.000
    H142     H        0.82510    0.18540    0.34560    1.000
    C215     C        0.69750    0.30060    0.31640    1.000
    H143     H        0.67500    0.33170    0.33270    1.000
    C216     C        0.67250    0.29020    0.25790    1.000
    H144     H        0.63300    0.31700    0.23520    1.000
    N61      N        0.70450    0.47000    0.58370    1.000
    N62      N        0.06100    0.11830    0.59000    1.000
    N63      N        0.69940    0.24580    0.23100    1.000
    N64      N        0.85220    0.28990    0.52920    1.000
    N65      N        0.84750    0.23400    0.44260    1.000
    N66      N        0.76250    0.32260    0.43910    1.000
    N67      N        0.22070    0.81280    0.07940    1.000
    N68      N        0.58660    0.15630    0.09440    1.000
    N69      N        0.22510    0.02960    0.73020    1.000
    N70      N        0.37450    0.98710    0.02820    1.000
    N71      N        0.37700    0.03700    0.94310    1.000
    N72      N        0.28910    0.95100    0.93690    1.000
    Ag13     Ag       0.84423    0.04333    0.86683    1.000
    Ag14     Ag       0.82171    0.74384    0.36644    1.000
    C217     C        0.09760    0.52840    0.49910    1.000
    C218     C        0.53260    0.68970    0.90900    1.000
    H145     H        0.55400    0.71040    0.88760    1.000
    C219     C        0.62340    0.74430    0.00030    1.000
    C220     C        0.00370    0.61500    0.49460    1.000
    H146     H        0.02350    0.61660    0.53480    1.000
    C221     C        0.55970    0.69980    0.96800    1.000
    C222     C        0.18170    0.44740    0.50530    1.000
    C223     C        0.03310    0.57260    0.46500    1.000
    C224     C        0.79750    0.91630    0.00370    1.000
    H147     H        0.81970    0.91230    0.04370    1.000
    C225     C        0.70940    0.77490    0.08580    1.000
    C226     C        0.94420    0.65520    0.46290    1.000
    H148     H        0.92460    0.68310    0.48320    1.000
    C227     C        0.27700    0.36150    0.50830    1.000
    H149     H        0.29780    0.36520    0.54850    1.000
    C228     C        0.22020    0.34730    0.39080    1.000
    H150     H        0.20040    0.34260    0.35080    1.000
    C229     C        0.74270    0.76330    0.14950    1.000
    C230     C        0.73520    0.87880    0.97300    1.000
    C231     C        0.17880    0.54420    0.67900    1.000
    H151     H        0.13480    0.56200    0.65870    1.000
    C232     C        0.21410    0.39850    0.47580    1.000
    C233     C        0.73540    0.93570    0.88740    1.000
    H152     H        0.71380    0.94270    0.84760    1.000
    C234     C        0.21210    0.50860    0.65060    1.000
    C235     C        0.52580    0.66570    0.99760    1.000
    H153     H        0.54320    0.66960    0.03760    1.000
    C236     C        0.46720    0.62650    0.96750    1.000
    H154     H        0.44530    0.60410    0.98800    1.000
    C237     C        0.17990    0.49790    0.58620    1.000
    C238     C        0.18630    0.39030    0.41710    1.000
    H155     H        0.14480    0.41330    0.39460    1.000
    C239     C        0.30680    0.31930    0.47820    1.000
    H156     H        0.34780    0.29450    0.49930    1.000
    C240     C        0.70380    0.89060    0.91370    1.000
    H157     H        0.66190    0.86830    0.89190    1.000
    C241     C        0.70510    0.82820    0.00340    1.000
    C242     C        0.47290    0.64810    0.88220    1.000
    H158     H        0.45560    0.64060    0.84240    1.000
    C243     C        0.82500    0.95940    0.97290    1.000
    H159     H        0.86700    0.98250    0.99340    1.000
    C244     C        0.00150    0.57230    0.40540    1.000
    H160     H        0.01920    0.54290    0.38420    1.000
    C245     C        0.30560    0.49520    0.74050    1.000
    H161     H        0.34950    0.47770    0.76150    1.000
    C246     C        0.21140    0.55320    0.73850    1.000
    H162     H        0.18820    0.57680    0.75760    1.000
    C247     C        0.94380    0.61570    0.37780    1.000
    H163     H        0.92450    0.61740    0.33760    1.000
    C248     C        0.74480    0.70520    0.23500    1.000
    H164     H        0.72620    0.67000    0.25240    1.000
    C249     C        0.27770    0.48350    0.68180    1.000
    H165     H        0.30190    0.45970    0.66380    1.000
    C250     C        0.71420    0.71310    0.17620    1.000
    H166     H        0.67490    0.68540    0.15440    1.000
    C251     C        0.80250    0.80060    0.18360    1.000
    H167     H        0.82500    0.83170    0.16730    1.000
    C252     C        0.82750    0.79020    0.24210    1.000
    H168     H        0.86700    0.81700    0.26480    1.000
    N73      N        0.79550    0.97000    0.91630    1.000
    N74      N        0.43900    0.61830    0.91000    1.000
    N75      N        0.80060    0.74580    0.26900    1.000
    N76      N        0.64780    0.78990    0.97080    1.000
    N77      N        0.65250    0.73400    0.05740    1.000
    N78      N        0.73750    0.82260    0.06090    1.000
    N79      N        0.27930    0.31280    0.42060    1.000
    N80      N        0.91340    0.65630    0.40560    1.000
    N81      N        0.27490    0.52960    0.76980    1.000
    N82      N        0.12550    0.48710    0.47180    1.000
    N83      N        0.12300    0.53700    0.55690    1.000
    N84      N        0.21090    0.45100    0.56310    1.000
    Ag15     Ag       0.34423    0.54333    0.86683    1.000
    Ag16     Ag       0.32171    0.24384    0.36644    1.000
    C253     C        0.59760    0.02840    0.49910    1.000
    C254     C        0.03260    0.18970    0.90900    1.000
    H169     H        0.05400    0.21040    0.88760    1.000
    C255     C        0.12340    0.24430    0.00030    1.000
    C256     C        0.50370    0.11500    0.49460    1.000
    H170     H        0.52350    0.11660    0.53480    1.000
    C257     C        0.05970    0.19980    0.96800    1.000
    C258     C        0.68170    0.94740    0.50530    1.000
    C259     C        0.53310    0.07260    0.46500    1.000
    C260     C        0.29750    0.41630    0.00370    1.000
    H171     H        0.31970    0.41230    0.04370    1.000
    C261     C        0.20940    0.27490    0.08580    1.000
    C262     C        0.44420    0.15520    0.46290    1.000
    H172     H        0.42460    0.18310    0.48320    1.000
    C263     C        0.77700    0.86150    0.50830    1.000
    H173     H        0.79780    0.86520    0.54850    1.000
    C264     C        0.72020    0.84730    0.39080    1.000
    H174     H        0.70040    0.84260    0.35080    1.000
    C265     C        0.24270    0.26330    0.14950    1.000
    C266     C        0.23520    0.37880    0.97300    1.000
    C267     C        0.67880    0.04420    0.67900    1.000
    H175     H        0.63480    0.06200    0.65870    1.000
    C268     C        0.71410    0.89850    0.47580    1.000
    C269     C        0.23540    0.43570    0.88740    1.000
    H176     H        0.21380    0.44270    0.84760    1.000
    C270     C        0.71210    0.00860    0.65060    1.000
    C271     C        0.02580    0.16570    0.99760    1.000
    H177     H        0.04320    0.16960    0.03760    1.000
    C272     C        0.96720    0.12650    0.96750    1.000
    H178     H        0.94530    0.10410    0.98800    1.000
    C273     C        0.67990    0.99790    0.58620    1.000
    C274     C        0.68630    0.89030    0.41710    1.000
    H179     H        0.64480    0.91330    0.39460    1.000
    C275     C        0.80680    0.81930    0.47820    1.000
    H180     H        0.84780    0.79450    0.49930    1.000
    C276     C        0.20380    0.39060    0.91370    1.000
    H181     H        0.16190    0.36830    0.89190    1.000
    C277     C        0.20510    0.32820    0.00340    1.000
    C278     C        0.97290    0.14810    0.88220    1.000
    H182     H        0.95560    0.14060    0.84240    1.000
    C279     C        0.32500    0.45940    0.97290    1.000
    H183     H        0.36700    0.48250    0.99340    1.000
    C280     C        0.50150    0.07230    0.40540    1.000
    H184     H        0.51920    0.04290    0.38420    1.000
    C281     C        0.80560    0.99520    0.74050    1.000
    H185     H        0.84950    0.97770    0.76150    1.000
    C282     C        0.71140    0.05320    0.73850    1.000
    H186     H        0.68820    0.07680    0.75760    1.000
    C283     C        0.44380    0.11570    0.37780    1.000
    H187     H        0.42450    0.11740    0.33760    1.000
    C284     C        0.24480    0.20520    0.23500    1.000
    H188     H        0.22620    0.17000    0.25240    1.000
    C285     C        0.77770    0.98350    0.68180    1.000
    H189     H        0.80190    0.95970    0.66380    1.000
    C286     C        0.21420    0.21310    0.17620    1.000
    H190     H        0.17490    0.18540    0.15440    1.000
    C287     C        0.30250    0.30060    0.18360    1.000
    H191     H        0.32500    0.33170    0.16730    1.000
    C288     C        0.32750    0.29020    0.24210    1.000
    H192     H        0.36700    0.31700    0.26480    1.000
    N85      N        0.29550    0.47000    0.91630    1.000
    N86      N        0.93900    0.11830    0.91000    1.000
    N87      N        0.30060    0.24580    0.26900    1.000
    N88      N        0.14780    0.28990    0.97080    1.000
    N89      N        0.15250    0.23400    0.05740    1.000
    N90      N        0.23750    0.32260    0.06090    1.000
    N91      N        0.77930    0.81280    0.42060    1.000
    N92      N        0.41340    0.15630    0.40560    1.000
    N93      N        0.77490    0.02960    0.76980    1.000
    N94      N        0.62550    0.98710    0.47180    1.000
    N95      N        0.62300    0.03700    0.55690    1.000
    N96      N        0.71090    0.95100    0.56310    1.000
