# CIF file generated by openbabel 3.1.0, see https://openbabel.org
data_I
_chemical_name_common 'image0'
_cell_length_a 12.1538
_cell_length_b 12.1574
_cell_length_c 16.1536
_cell_angle_alpha 77.045
_cell_angle_beta 82.55
_cell_angle_gamma 83.527
_space_group_name_H-M_alt 'P 1'
_space_group_name_Hall 'P 1'
loop_
    _symmetry_equiv_pos_as_xyz
    x,y,z
loop_
    _atom_site_label
    _atom_site_type_symbol
    _atom_site_fract_x
    _atom_site_fract_y
    _atom_site_fract_z
    _atom_site_occupancy
    N1       N        0.11210    0.37910    0.59777    1.000
    C1       C        0.13530    0.26530    0.61340    1.000
    C2       C        0.16150    0.40980    0.65670    1.000
    N2       N        0.19440    0.22360    0.67730    1.000
    N3       N        0.21080    0.31920    0.70510    1.000
    N4       N        0.87210    0.98090    0.61930    1.000
    C3       C        0.81010    0.89350    0.65750    1.000
    C4       C        0.83950    0.05830    0.66570    1.000
    H1       H        0.86650    0.12920    0.65590    1.000
    N5       N        0.74200    0.91240    0.72420    1.000
    N6       N        0.76240    0.01920    0.72834    1.000
    C5       C        0.71270    0.07040    0.79710    1.000
    C6       C        0.67680    0.18530    0.77950    1.000
    N7       N        0.25270    0.46790    0.27615    1.000
    C7       C        0.54980    0.21600    0.00160    1.000
    C8       C        0.45210    0.28080    0.99220    1.000
    N8       N        0.14550    0.49740    0.38938    1.000
    C9       C        0.61200    0.16760    0.93040    1.000
    C10      C        0.15800    0.44330    0.32580    1.000
    H2       H        0.10830    0.39530    0.31700    1.000
    C11      C        0.30050    0.42770    0.20120    1.000
    C12      C        0.38990    0.29350    0.91660    1.000
    C13      C        0.59810    0.18080    0.08450    1.000
    C14      C        0.83980    0.05060    0.33580    1.000
    H3       H        0.90090    0.05390    0.29440    1.000
    H4       H        0.16200    0.47800    0.66000    1.000
    O1       O        0.08400    0.63150    0.54422    1.000
    N9       N        0.84550    0.02180    0.41897    1.000
    O2       O        0.01050    0.80880    0.50396    1.000
    N10      N        0.73420    0.07440    0.31942    1.000
    C15      C        0.75690    0.15180    0.16580    1.000
    H5       H        0.83220    0.15700    0.16790    1.000
    C16      C        0.27490    0.40440    0.81170    1.000
    H6       H        0.23900    0.47390    0.78820    1.000
    N11      N        0.66620    0.06550    0.39440    1.000
    C17      C        0.53250    0.13620    0.15950    1.000
    H7       H        0.45750    0.12970    0.15740    1.000
    C18      C        0.68870    0.10950    0.23960    1.000
    C19      C        0.45860    0.39840    0.10150    1.000
    H8       H        0.53240    0.40940    0.08060    1.000
    C20      C        0.33250    0.39310    0.88130    1.000
    H9       H        0.33260    0.45570    0.90550    1.000
    C21      C        0.23590    0.37470    0.15990    1.000
    H10      H        0.16080    0.36860    0.17870    1.000
    C22      C        0.57660    0.10150    0.23640    1.000
    H11      H        0.53150    0.07290    0.28590    1.000
    C23      C        0.32110    0.20620    0.81330    1.000
    H12      H        0.31550    0.14270    0.79140    1.000
    C24      C        0.65910    0.05760    0.94510    1.000
    H13      H        0.65780    0.01580    0.00100    1.000
    C25      C        0.28450    0.33070    0.09040    1.000
    H14      H        0.24100    0.29560    0.06230    1.000
    C26      C        0.07920    0.73620    0.53780    1.000
    H15      H        0.13430    0.76240    0.56150    1.000
    C27      C        0.41150    0.44150    0.17140    1.000
    H16      H        0.45370    0.47940    0.19820    1.000
    N12      N        0.30660    0.53890    0.30860    1.000
    C28      C        0.37970    0.19730    0.88270    1.000
    H17      H        0.41310    0.12710    0.90770    1.000
    C29      C        0.27110    0.31020    0.77690    1.000
    C30      C        0.62760    0.23380    0.84690    1.000
    H18      H        0.60470    0.31080    0.83680    1.000
    H19      H        0.68300    0.23400    0.71800    1.000
    C31      C        0.71090    0.18580    0.08940    1.000
    H20      H        0.75660    0.21290    0.03990    1.000
    C32      C        0.70860    0.00750    0.87880    1.000
    H21      H        0.73840    0.93240    0.88970    1.000
    C33      C        0.23850    0.55410    0.37620    1.000
    H22      H        0.25300    0.59980    0.41190    1.000
    C34      C        0.73700    0.03430    0.45140    1.000
    H23      H        0.71480    0.02160    0.50980    1.000
    H24      H        0.81700    0.83100    0.64300    1.000
    H25      H        0.11200    0.22100    0.58100    1.000
    C35      C        0.39740    0.33820    0.06160    1.000
    N13      N        0.88790    0.62090    0.40223    1.000
    C36      C        0.86470    0.73470    0.38660    1.000
    C37      C        0.83850    0.59020    0.34330    1.000
    N14      N        0.80560    0.77640    0.32270    1.000
    N15      N        0.78920    0.68080    0.29490    1.000
    N16      N        0.12790    0.01910    0.38070    1.000
    C38      C        0.18990    0.10650    0.34250    1.000
    C39      C        0.16050    0.94170    0.33430    1.000
    H26      H        0.13350    0.87080    0.34410    1.000
    N17      N        0.25800    0.08760    0.27580    1.000
    N18      N        0.23760    0.98080    0.27166    1.000
    C40      C        0.28730    0.92960    0.20290    1.000
    C41      C        0.32320    0.81470    0.22050    1.000
    N19      N        0.74730    0.53210    0.72385    1.000
    C42      C        0.45020    0.78400    0.99840    1.000
    C43      C        0.54790    0.71920    0.00780    1.000
    N20      N        0.85450    0.50260    0.61062    1.000
    C44      C        0.38800    0.83240    0.06960    1.000
    C45      C        0.84200    0.55670    0.67420    1.000
    H27      H        0.89170    0.60470    0.68300    1.000
    C46      C        0.69950    0.57230    0.79880    1.000
    C47      C        0.61010    0.70650    0.08340    1.000
    C48      C        0.40190    0.81920    0.91550    1.000
    C49      C        0.16020    0.94940    0.66420    1.000
    H28      H        0.09910    0.94610    0.70560    1.000
    H29      H        0.83800    0.52200    0.34000    1.000
    O3       O        0.91600    0.36850    0.45578    1.000
    N21      N        0.15450    0.97820    0.58103    1.000
    O4       O        0.98950    0.19120    0.49604    1.000
    N22      N        0.26580    0.92560    0.68058    1.000
    C50      C        0.24310    0.84820    0.83420    1.000
    H30      H        0.16780    0.84300    0.83210    1.000
    C51      C        0.72510    0.59560    0.18830    1.000
    H31      H        0.76100    0.52610    0.21180    1.000
    N23      N        0.33380    0.93450    0.60560    1.000
    C52      C        0.46750    0.86380    0.84050    1.000
    H32      H        0.54250    0.87030    0.84260    1.000
    C53      C        0.31130    0.89050    0.76040    1.000
    C54      C        0.54140    0.60160    0.89850    1.000
    H33      H        0.46760    0.59060    0.91940    1.000
    C55      C        0.66750    0.60690    0.11870    1.000
    H34      H        0.66740    0.54430    0.09450    1.000
    C56      C        0.76410    0.62530    0.84010    1.000
    H35      H        0.83920    0.63140    0.82130    1.000
    C57      C        0.42340    0.89850    0.76360    1.000
    H36      H        0.46850    0.92710    0.71410    1.000
    C58      C        0.67890    0.79380    0.18670    1.000
    H37      H        0.68450    0.85730    0.20860    1.000
    C59      C        0.34090    0.94240    0.05490    1.000
    H38      H        0.34220    0.98420    0.99900    1.000
    C60      C        0.71550    0.66930    0.90960    1.000
    H39      H        0.75900    0.70440    0.93770    1.000
    C61      C        0.92080    0.26380    0.46220    1.000
    H40      H        0.86570    0.23760    0.43850    1.000
    C62      C        0.58850    0.55850    0.82860    1.000
    H41      H        0.54630    0.52060    0.80180    1.000
    N24      N        0.69340    0.46110    0.69140    1.000
    C63      C        0.62030    0.80270    0.11730    1.000
    H42      H        0.58690    0.87290    0.09230    1.000
    C64      C        0.72890    0.68980    0.22310    1.000
    C65      C        0.37240    0.76620    0.15310    1.000
    H43      H        0.39530    0.68920    0.16320    1.000
    H44      H        0.31700    0.76600    0.28200    1.000
    C66      C        0.28910    0.81420    0.91060    1.000
    H45      H        0.24340    0.78710    0.96010    1.000
    C67      C        0.29140    0.99250    0.12120    1.000
    H46      H        0.26160    0.06760    0.11030    1.000
    C68      C        0.76150    0.44590    0.62380    1.000
    H47      H        0.74700    0.40020    0.58810    1.000
    C69      C        0.26300    0.96570    0.54860    1.000
    H48      H        0.28520    0.97840    0.49020    1.000
    H49      H        0.18300    0.16900    0.35700    1.000
    H50      H        0.88800    0.77900    0.41900    1.000
    C70      C        0.60260    0.66180    0.93840    1.000
    Cd1      Cd       0.00000    0.50000    0.50000    1.000
    Cd2      Cd       0.00000    0.00000    0.50000    1.000
