# CIF file generated by openbabel 3.1.0, see https://openbabel.org
data_I
_chemical_name_common 'ic3019502_si_002_clean'
_cell_length_a 14.1018
_cell_length_b 14.1018
_cell_length_c 14.1018
_cell_angle_alpha 107.535
_cell_angle_beta 107.535
_cell_angle_gamma 113.417
_space_group_name_H-M_alt 'P 1'
_space_group_name_Hall 'P 1'
loop_
    _symmetry_equiv_pos_as_xyz
    x,y,z
loop_
    _atom_site_label
    _atom_site_type_symbol
    _atom_site_fract_x
    _atom_site_fract_y
    _atom_site_fract_z
    _atom_site_occupancy
    Mn1      Mn       0.50000    0.50000    0.00000    1.000
    Zn1      Zn       0.90418    0.90418    0.00000    1.000
    Zn2      Zn       0.09582    0.09582    0.00000    1.000
    H1       H        0.20300    0.57340    0.77640    1.000
    H2       H        0.59210    0.15250    0.00000    1.000
    H3       H        0.57340    0.20300    0.77640    1.000
    H4       H        0.94390    0.30990    0.00000    1.000
    H5       H        0.40790    0.84750    0.00000    1.000
    H6       H        0.05610    0.69010    0.00000    1.000
    H7       H        0.69010    0.69010    0.63400    1.000
    H8       H        0.79700    0.57340    0.37040    1.000
    H9       H        0.42660    0.20300    0.62960    1.000
    H10      H        0.69010    0.05610    0.00000    1.000
    H11      H        0.15250    0.59210    0.00000    1.000
    H12      H        0.42660    0.79700    0.22360    1.000
    H13      H        0.05610    0.05610    0.36600    1.000
    H14      H        0.84750    0.84750    0.43960    1.000
    H15      H        0.20300    0.42660    0.62960    1.000
    H16      H        0.57340    0.79700    0.37040    1.000
    H17      H        0.40790    0.40790    0.56040    1.000
    H18      H        0.79700    0.42660    0.22360    1.000
    H19      H        0.15250    0.15250    0.56040    1.000
    H20      H        0.59210    0.59210    0.43960    1.000
    H21      H        0.30990    0.30990    0.36600    1.000
    H22      H        0.30990    0.94390    0.00000    1.000
    H23      H        0.94390    0.94390    0.63400    1.000
    H24      H        0.84750    0.40790    0.00000    1.000
    C1       C        0.12784    0.72316    0.00000    1.000
    C2       C        0.66386    0.18574    0.00000    1.000
    C3       C        0.71280    0.71280    0.00000    1.000
    C4       C        0.10860    0.89140    0.00000    1.000
    C5       C        0.75200    0.45970    0.21170    1.000
    C6       C        0.10860    0.10860    0.21720    1.000
    C7       C        0.89140    0.89140    0.78280    1.000
    C8       C        0.87216    0.27684    0.00000    1.000
    C9       C        0.17230    0.17230    0.34460    1.000
    C10      C        0.70900    0.29100    0.00000    1.000
    C11      C        0.72316    0.72316    0.59532    1.000
    C12      C        0.18574    0.66386    0.00000    1.000
    C13      C        0.35450    0.64550    0.00000    1.000
    C14      C        0.27684    0.27684    0.40468    1.000
    C15      C        0.18574    0.18574    0.52188    1.000
    C16      C        0.29100    0.70900    0.00000    1.000
    C17      C        0.87216    0.87216    0.59532    1.000
    C18      C        0.27684    0.87216    0.00000    1.000
    C19      C        0.12784    0.12784    0.40468    1.000
    C20      C        0.82770    0.17230    0.00000    1.000
    C21      C        0.56560    0.67090    0.23650    1.000
    C22      C        0.66386    0.66386    0.47812    1.000
    C23      C        0.75200    0.54030    0.29230    1.000
    C24      C        0.33614    0.81426    0.00000    1.000
    C25      C        0.81426    0.81426    0.47812    1.000
    C26      C        0.70900    0.70900    0.41800    1.000
    C27      C        0.35450    0.35450    0.70900    1.000
    C28      C        0.32910    0.43440    0.76350    1.000
    C29      C        0.33614    0.33614    0.52188    1.000
    C30      C        0.43440    0.32910    0.76350    1.000
    C31      C        0.72316    0.12784    0.00000    1.000
    C32      C        0.17230    0.82770    0.00000    1.000
    C33      C        0.54030    0.24800    0.78830    1.000
    C34      C        0.45970    0.75200    0.21170    1.000
    C35      C        0.67090    0.56560    0.23650    1.000
    C36      C        0.54030    0.75200    0.29230    1.000
    C37      C        0.64550    0.64550    0.29100    1.000
    C38      C        0.24800    0.54030    0.78830    1.000
    C39      C        0.24800    0.45970    0.70770    1.000
    C40      C        0.82770    0.82770    0.65540    1.000
    C41      C        0.81426    0.33614    0.00000    1.000
    C42      C        0.64550    0.35450    0.00000    1.000
    C43      C        0.45970    0.24800    0.70770    1.000
    C44      C        0.67090    0.43440    0.10530    1.000
    C45      C        0.56560    0.32910    0.89470    1.000
    C46      C        0.89140    0.10860    0.00000    1.000
    C47      C        0.32910    0.56560    0.89470    1.000
    C48      C        0.29100    0.29100    0.58200    1.000
    C49      C        0.28720    0.28720    0.00000    1.000
    C50      C        0.43440    0.67090    0.10530    1.000
    N1       N        0.37810    0.50000    0.87810    1.000
    N2       N        0.62190    0.50000    0.12190    1.000
    N3       N        0.50000    0.62190    0.12190    1.000
    N4       N        0.50000    0.37810    0.87810    1.000
    O1       O        0.01224    0.01224    0.16888    1.000
    O2       O        0.84336    0.84336    0.83112    1.000
    O3       O        0.15664    0.98776    0.00000    1.000
    O4       O        0.98776    0.98776    0.83112    1.000
    O5       O        0.35870    0.35870    0.00000    1.000
    O6       O        0.84336    0.01224    0.00000    1.000
    O7       O        0.22100    0.22100    0.00000    1.000
    O8       O        0.15664    0.15664    0.16888    1.000
    O9       O        0.98776    0.15664    0.00000    1.000
    O10      O        0.77900    0.77900    0.00000    1.000
    O11      O        0.64130    0.64130    0.00000    1.000
    O12      O        0.01224    0.84336    0.00000    1.000
