# CIF file generated by openbabel 3.1.0, see https://openbabel.org
data_I
_chemical_name_common 'image0'
_cell_length_a 13.0887
_cell_length_b 14.9813
_cell_length_c 17.1216
_cell_angle_alpha 69.184
_cell_angle_beta 70.767
_cell_angle_gamma 86.494
_space_group_name_H-M_alt 'P 1'
_space_group_name_Hall 'P 1'
loop_
    _symmetry_equiv_pos_as_xyz
    x,y,z
loop_
    _atom_site_label
    _atom_site_type_symbol
    _atom_site_fract_x
    _atom_site_fract_y
    _atom_site_fract_z
    _atom_site_occupancy
    W1       W        0.35073    0.18251    0.23006    1.000
    W2       W        0.12325    0.33003    0.22468    1.000
    W3       W        0.87266    0.22846    0.28804    1.000
    W4       W        0.83475    0.97201    0.34943    1.000
    W5       W        0.31343    0.94364    0.29592    1.000
    W6       W        0.04809    0.83491    0.35260    1.000
    Co1      Co       0.10302    0.93325    0.50212    1.000
    Co2      Co       0.06750    0.06370    0.00714    1.000
    Co3      Co       0.83990    0.95700    0.00610    1.000
    Na1      Na       0.14670    0.17930    0.45140    1.000
    Na2      Na       0.42130    0.70390    0.36840    1.000
    P1       P        0.94720    0.88850    0.18857    1.000
    P2       P        0.41120    0.07100    0.08029    1.000
    P3       P        0.00970    0.33560    0.07514    1.000
    P4       P        0.08484    0.07847    0.31347    1.000
    O1       O        0.89360    0.85000    0.37650    1.000
    O2       O        0.25610    0.27280    0.18650    1.000
    O3       O        0.96570    0.33890    0.25240    1.000
    O4       O        0.05880    0.06100    0.41310    1.000
    O5       O        0.24880    0.93180    0.40840    1.000
    O6       O        0.40450    0.05510    0.25950    1.000
    O7       O        0.86070    0.18390    0.40190    1.000
    O8       O        0.83240    0.98330    0.45000    1.000
    O9       O        0.83860    0.10530    0.28740    1.000
    O10      O        0.88560    0.96660    0.22260    1.000
    O11      O        0.92510    0.25510    0.15090    1.000
    O12      O        0.87260    0.79900    0.22180    1.000
    O13      O        0.04290    0.86490    0.22500    1.000
    O14      O        0.99330    0.93240    0.08810    1.000
    O15      O        0.19640    0.87610    0.29130    1.000
    O16      O        0.11780    0.30090    0.33320    1.000
    O17      O        0.02310    0.00000    0.30430    1.000
    O18      O        0.38430    0.16040    0.10400    1.000
    O19      O        0.95660    0.43310    0.06740    1.000
    O20      O        0.11270    0.33420    0.10130    1.000
    O21      O        0.20700    0.07370    0.26780    1.000
    O22      O        0.40940    0.85910    0.30370    1.000
    O23      O        0.34930    0.98180    0.15780    1.000
    O24      O        0.30210    0.18050    0.33780    1.000
    O25      O        0.52000    0.76180    0.44030    1.000
    O26      O        0.04910    0.17620    0.26530    1.000
    O27      O        0.53680    0.06130    0.06420    1.000
    O28      O        0.23480    0.70220    0.48040    1.000
    O29      O        0.04400    0.84810    0.45390    1.000
    O30      O        0.04040    0.32050    0.98740    1.000
    O31      O        0.38720    0.07810    0.99770    1.000
    O32      O        0.21320    0.99840    0.94520    1.000
    O33      O        0.09540    0.09920    0.11140    1.000
    O34      O        0.72000    0.99300    0.12900    1.000
    O35      O        0.86100    0.92940    0.89960    1.000
    C1       C        0.21320    0.61780    0.55390    1.000
    H1       H        0.25670    0.56840    0.53750    1.000
    H2       H        0.23360    0.62820    0.59970    1.000
    C2       C        0.09550    0.58420    0.58980    1.000
    H3       H        0.08380    0.52700    0.64210    1.000
    H4       H        0.05260    0.63310    0.60780    1.000
    C3       C        0.11280    0.48450    0.49610    1.000
    H5       H        0.18970    0.50270    0.46750    1.000
    H6       H        0.10370    0.42670    0.54750    1.000
    C4       C        0.93390    0.53430    0.56850    1.000
    H7       H        0.92220    0.47720    0.62090    1.000
    H8       H        0.89680    0.58530    0.58670    1.000
    C5       C        0.41810    0.94020    0.50050    1.000
    H9       H        0.36400    0.93430    0.55700    1.000
    H10      H        0.39010    0.90490    0.47330    1.000
    C6       C        0.46460    0.73920    0.53480    1.000
    H11      H        0.47100    0.67210    0.56620    1.000
    H12      H        0.38810    0.74960    0.54510    1.000
    C7       C        0.50860    0.79670    0.56930    1.000
    H13      H        0.46170    0.78780    0.62900    1.000
    H14      H        0.57920    0.77530    0.57210    1.000
    C8       C        0.56010    0.96230    0.55490    1.000
    H15      H        0.62560    0.93700    0.56690    1.000
    H16      H        0.50550    0.95760    0.61090    1.000
    N1       N        0.51990    0.90080    0.51390    1.000
    N2       N        0.05550    0.56250    0.52410    1.000
    W7       W        0.64927    0.81749    0.76994    1.000
    W8       W        0.87675    0.66997    0.77532    1.000
    W9       W        0.12734    0.77154    0.71196    1.000
    W10      W        0.16525    0.02799    0.65057    1.000
    W11      W        0.68657    0.05636    0.70408    1.000
    W12      W        0.95191    0.16509    0.64740    1.000
    Co4      Co       0.89698    0.06675    0.49788    1.000
    Co5      Co       0.93250    0.93630    0.99286    1.000
    Co6      Co       0.16010    0.04300    0.99390    1.000
    Na3      Na       0.85330    0.82070    0.54860    1.000
    Na4      Na       0.57870    0.29610    0.63160    1.000
    P5       P        0.05280    0.11150    0.81143    1.000
    P6       P        0.58880    0.92900    0.91971    1.000
    P7       P        0.99030    0.66440    0.92486    1.000
    P8       P        0.91516    0.92153    0.68653    1.000
    O36      O        0.10640    0.15000    0.62350    1.000
    O37      O        0.74390    0.72720    0.81350    1.000
    O38      O        0.03430    0.66110    0.74760    1.000
    O39      O        0.94120    0.93900    0.58690    1.000
    O40      O        0.75120    0.06820    0.59160    1.000
    O41      O        0.59550    0.94490    0.74050    1.000
    O42      O        0.13930    0.81610    0.59810    1.000
    O43      O        0.16760    0.01670    0.55000    1.000
    O44      O        0.16140    0.89470    0.71260    1.000
    O45      O        0.11440    0.03340    0.77740    1.000
    O46      O        0.07490    0.74490    0.84910    1.000
    O47      O        0.12740    0.20100    0.77820    1.000
    O48      O        0.95710    0.13510    0.77500    1.000
    O49      O        0.00670    0.06760    0.91190    1.000
    O50      O        0.80360    0.12390    0.70870    1.000
    O51      O        0.88220    0.69910    0.66680    1.000
    O52      O        0.97690    0.00000    0.69570    1.000
    O53      O        0.61570    0.83960    0.89600    1.000
    O54      O        0.04340    0.56690    0.93260    1.000
    O55      O        0.88730    0.66580    0.89870    1.000
    O56      O        0.79300    0.92630    0.73220    1.000
    O57      O        0.59060    0.14090    0.69630    1.000
    O58      O        0.65070    0.01820    0.84220    1.000
    O59      O        0.69790    0.81950    0.66220    1.000
    O60      O        0.48000    0.23820    0.55970    1.000
    O61      O        0.95090    0.82380    0.73470    1.000
    O62      O        0.46320    0.93870    0.93580    1.000
    O63      O        0.76520    0.29780    0.51960    1.000
    O64      O        0.95600    0.15190    0.54610    1.000
    O65      O        0.95960    0.67950    0.01260    1.000
    O66      O        0.61280    0.92190    0.00230    1.000
    O67      O        0.78680    0.00160    0.05480    1.000
    O68      O        0.90460    0.90080    0.88860    1.000
    O69      O        0.28000    0.00700    0.87100    1.000
    O70      O        0.13900    0.07060    0.10040    1.000
    C9       C        0.78680    0.38220    0.44610    1.000
    H17      H        0.74330    0.43160    0.46250    1.000
    H18      H        0.76640    0.37180    0.40030    1.000
    C10      C        0.90450    0.41580    0.41020    1.000
    H19      H        0.91620    0.47300    0.35790    1.000
    H20      H        0.94740    0.36690    0.39220    1.000
    C11      C        0.88720    0.51550    0.50390    1.000
    H21      H        0.81030    0.49730    0.53250    1.000
    H22      H        0.89630    0.57330    0.45250    1.000
    C12      C        0.06610    0.46570    0.43150    1.000
    H23      H        0.07780    0.52280    0.37910    1.000
    H24      H        0.10320    0.41470    0.41330    1.000
    C13      C        0.58190    0.05980    0.49950    1.000
    H25      H        0.63600    0.06570    0.44300    1.000
    H26      H        0.60990    0.09510    0.52670    1.000
    C14      C        0.53540    0.26080    0.46520    1.000
    H27      H        0.52900    0.32790    0.43380    1.000
    H28      H        0.61190    0.25040    0.45490    1.000
    C15      C        0.49140    0.20330    0.43070    1.000
    H29      H        0.53830    0.21220    0.37100    1.000
    H30      H        0.42080    0.22470    0.42790    1.000
    C16      C        0.43990    0.03770    0.44510    1.000
    H31      H        0.37440    0.06300    0.43310    1.000
    H32      H        0.49450    0.04240    0.38910    1.000
    N3       N        0.48010    0.09920    0.48610    1.000
    N4       N        0.94450    0.43750    0.47590    1.000
