# CIF file generated by openbabel 3.1.0, see https://openbabel.org
data_I
_chemical_name_common 'image0'
_cell_length_a 6.6174
_cell_length_b 18.2
_cell_length_c 8.3777
_cell_angle_alpha 90
_cell_angle_beta 90
_cell_angle_gamma 90
_space_group_name_H-M_alt 'P 1'
_space_group_name_Hall 'P 1'
loop_
    _symmetry_equiv_pos_as_xyz
    x,y,z
loop_
    _atom_site_label
    _atom_site_type_symbol
    _atom_site_fract_x
    _atom_site_fract_y
    _atom_site_fract_z
    _atom_site_occupancy
    O1       O        0.33370    0.09550    0.27030    1.000
    O2       O        0.98460    0.05060    0.42860    1.000
    O3       O        0.17370    0.18410    0.02030    1.000
    O4       O        0.32030    0.25890    0.84700    1.000
    C1       C        0.23610    0.24400    0.97730    1.000
    H1       H        0.21950    0.28270    0.04860    1.000
    O5       O        0.83370    0.59550    0.27030    1.000
    O6       O        0.48460    0.55060    0.42860    1.000
    O7       O        0.67370    0.68410    0.02030    1.000
    O8       O        0.82030    0.75890    0.84700    1.000
    C2       C        0.73610    0.74400    0.97730    1.000
    H2       H        0.71950    0.78270    0.04860    1.000
    O9       O        0.66630    0.90450    0.77030    1.000
    O10      O        0.01540    0.94940    0.92860    1.000
    O11      O        0.82630    0.81590    0.52030    1.000
    O12      O        0.67970    0.74110    0.34700    1.000
    C3       C        0.76390    0.75600    0.47730    1.000
    H3       H        0.78050    0.71730    0.54860    1.000
    O13      O        0.16630    0.40450    0.77030    1.000
    O14      O        0.51540    0.44940    0.92860    1.000
    O15      O        0.32630    0.31590    0.52030    1.000
    O16      O        0.17970    0.24110    0.34700    1.000
    C4       C        0.26390    0.25600    0.47730    1.000
    H4       H        0.28050    0.21730    0.54860    1.000
    O17      O        0.66630    0.09550    0.22970    1.000
    O18      O        0.01540    0.05060    0.07140    1.000
    O19      O        0.82630    0.18410    0.47970    1.000
    O20      O        0.67970    0.25890    0.65300    1.000
    C5       C        0.76390    0.24400    0.52270    1.000
    H5       H        0.78050    0.28270    0.45140    1.000
    O21      O        0.16630    0.59550    0.22970    1.000
    O22      O        0.51540    0.55060    0.07140    1.000
    O23      O        0.32630    0.68410    0.47970    1.000
    O24      O        0.17970    0.75890    0.65300    1.000
    C6       C        0.26390    0.74400    0.52270    1.000
    H6       H        0.28050    0.78270    0.45140    1.000
    O25      O        0.33370    0.90450    0.72970    1.000
    O26      O        0.98460    0.94940    0.57140    1.000
    O27      O        0.17370    0.81590    0.97970    1.000
    O28      O        0.32030    0.74110    0.15300    1.000
    C7       C        0.23610    0.75600    0.02270    1.000
    H7       H        0.21950    0.71730    0.95140    1.000
    O29      O        0.83370    0.40450    0.72970    1.000
    O30      O        0.48460    0.44940    0.57140    1.000
    O31      O        0.67370    0.31590    0.97970    1.000
    O32      O        0.82030    0.24110    0.15300    1.000
    C8       C        0.73610    0.25600    0.02270    1.000
    H8       H        0.71950    0.21730    0.95140    1.000
    Lu1      Lu       0.00000    0.14278    0.25000    1.000
    Lu2      Lu       0.50000    0.64278    0.25000    1.000
    Lu3      Lu       0.00000    0.85722    0.75000    1.000
    Lu4      Lu       0.50000    0.35722    0.75000    1.000
    C9       C        0.50000    0.12600    0.25000    1.000
    H9       H        0.50000    0.17710    0.25000    1.000
    C10      C        0.00000    0.62600    0.25000    1.000
    H10      H        0.00000    0.67710    0.25000    1.000
    C11      C        0.50000    0.87400    0.75000    1.000
    H11      H        0.50000    0.82290    0.75000    1.000
    C12      C        0.00000    0.37400    0.75000    1.000
    H12      H        0.00000    0.32290    0.75000    1.000
    C13      C        0.07650    0.00000    0.50000    1.000
    H13      H        0.21700    0.00000    0.50000    1.000
    C14      C        0.57650    0.50000    0.50000    1.000
    H14      H        0.71700    0.50000    0.50000    1.000
    C15      C        0.92350    0.00000    0.00000    1.000
    H15      H        0.78300    0.00000    0.00000    1.000
    C16      C        0.42350    0.50000    0.00000    1.000
    H16      H        0.28300    0.50000    0.00000    1.000
