# CIF file generated by openbabel 3.1.0, see https://openbabel.org
data_I
_chemical_name_common 'image0'
_cell_length_a 22.22
_cell_length_b 22.22
_cell_length_c 22.487
_cell_angle_alpha 90
_cell_angle_beta 90
_cell_angle_gamma 120
_space_group_name_H-M_alt 'P 1'
_space_group_name_Hall 'P 1'
loop_
    _symmetry_equiv_pos_as_xyz
    x,y,z
loop_
    _atom_site_label
    _atom_site_type_symbol
    _atom_site_fract_x
    _atom_site_fract_y
    _atom_site_fract_z
    _atom_site_occupancy
    I1       I        0.39077    0.23829    0.49576    1.000
    I2       I        0.56337    0.37383    0.62163    1.000
    Cu1      Cu       0.52290    0.28471    0.53072    1.000
    Cu2      Cu       0.42842    0.26793    0.60888    1.000
    N1       N        0.58190    0.34340    0.46010    1.000
    N2       N        0.37560    0.31210    0.64360    1.000
    C1       C        0.57020    0.29950    0.40810    1.000
    H1       H        0.52220    0.27900    0.39530    1.000
    H2       H        0.57890    0.26210    0.41840    1.000
    C2       C        0.56290    0.39530    0.44420    1.000
    H3       H        0.57250    0.42670    0.47740    1.000
    H4       H        0.51360    0.37260    0.43570    1.000
    C3       C        0.65670    0.38050    0.47700    1.000
    H5       H        0.67180    0.34720    0.48490    1.000
    H6       H        0.66340    0.40740    0.51290    1.000
    C4       C        0.29730    0.26290    0.64960    1.000
    H7       H        0.28900    0.22120    0.67030    1.000
    H8       H        0.27670    0.24960    0.61030    1.000
    C5       C        0.40270    0.34020    0.70440    1.000
    H9       H        0.45300    0.36720    0.70320    1.000
    H10      H        0.38950    0.30180    0.73180    1.000
    C6       C        0.38690    0.37330    0.60600    1.000
    H11      H        0.37550    0.35880    0.56490    1.000
    H12      H        0.43530    0.40930    0.60790    1.000
    I3       I        0.76171    0.15248    0.82909    1.000
    I4       I        0.62617    0.18954    0.95496    1.000
    Cu3      Cu       0.71529    0.23819    0.86405    1.000
    Cu4      Cu       0.73207    0.16049    0.94221    1.000
    N3       N        0.65660    0.23850    0.79343    1.000
    N4       N        0.68790    0.06350    0.97693    1.000
    C7       C        0.70050    0.27070    0.74143    1.000
    H13      H        0.72100    0.24320    0.72863    1.000
    H14      H        0.73790    0.31680    0.75173    1.000
    C8       C        0.60470    0.16760    0.77753    1.000
    H15      H        0.57330    0.14580    0.81073    1.000
    H16      H        0.62740    0.14100    0.76903    1.000
    C9       C        0.61950    0.27620    0.81033    1.000
    H17      H        0.65280    0.32460    0.81823    1.000
    H18      H        0.59260    0.25600    0.84623    1.000
    C10      C        0.73710    0.03440    0.98293    1.000
    H19      H        0.77880    0.06780    0.00363    1.000
    H20      H        0.75040    0.02710    0.94363    1.000
    C11      C        0.65980    0.06250    0.03773    1.000
    H21      H        0.63280    0.08580    0.03653    1.000
    H22      H        0.69820    0.08770    0.06513    1.000
    C12      C        0.62670    0.01360    0.93933    1.000
    H23      H        0.64120    0.01670    0.89823    1.000
    H24      H        0.59070    0.02600    0.94123    1.000
    I5       I        0.84752    0.60923    0.16243    1.000
    I6       I        0.81046    0.43663    0.28830    1.000
    Cu5      Cu       0.76181    0.47710    0.19739    1.000
    Cu6      Cu       0.83951    0.57158    0.27555    1.000
    N5       N        0.76150    0.41810    0.12677    1.000
    N6       N        0.93650    0.62440    0.31027    1.000
    C13      C        0.72930    0.42980    0.07477    1.000
    H25      H        0.75680    0.47780    0.06197    1.000
    H26      H        0.68320    0.42110    0.08507    1.000
    C14      C        0.83240    0.43710    0.11087    1.000
    H27      H        0.85420    0.42750    0.14407    1.000
    H28      H        0.85900    0.48640    0.10237    1.000
    C15      C        0.72380    0.34330    0.14367    1.000
    H29      H        0.67540    0.32820    0.15157    1.000
    H30      H        0.74400    0.33660    0.17957    1.000
    C16      C        0.96560    0.70270    0.31627    1.000
    H31      H        0.93220    0.71100    0.33697    1.000
    H32      H        0.97290    0.72330    0.27697    1.000
    C17      C        0.93750    0.59730    0.37107    1.000
    H33      H        0.91420    0.54700    0.36987    1.000
    H34      H        0.91230    0.61050    0.39847    1.000
    C18      C        0.98640    0.61310    0.27267    1.000
    H35      H        0.98330    0.62450    0.23157    1.000
    H36      H        0.97400    0.56470    0.27457    1.000
    I7       I        0.60923    0.76171    0.99576    1.000
    I8       I        0.43663    0.62617    0.12163    1.000
    Cu7      Cu       0.47710    0.71529    0.03072    1.000
    Cu8      Cu       0.57158    0.73207    0.10888    1.000
    N7       N        0.41810    0.65660    0.96010    1.000
    N8       N        0.62440    0.68790    0.14360    1.000
    C19      C        0.42980    0.70050    0.90810    1.000
    H37      H        0.47780    0.72100    0.89530    1.000
    H38      H        0.42110    0.73790    0.91840    1.000
    C20      C        0.43710    0.60470    0.94420    1.000
    H39      H        0.42750    0.57330    0.97740    1.000
    H40      H        0.48640    0.62740    0.93570    1.000
    C21      C        0.34330    0.61950    0.97700    1.000
    H41      H        0.32820    0.65280    0.98490    1.000
    H42      H        0.33660    0.59260    0.01290    1.000
    C22      C        0.70270    0.73710    0.14960    1.000
    H43      H        0.71100    0.77880    0.17030    1.000
    H44      H        0.72330    0.75040    0.11030    1.000
    C23      C        0.59730    0.65980    0.20440    1.000
    H45      H        0.54700    0.63280    0.20320    1.000
    H46      H        0.61050    0.69820    0.23180    1.000
    C24      C        0.61310    0.62670    0.10600    1.000
    H47      H        0.62450    0.64120    0.06490    1.000
    H48      H        0.56470    0.59070    0.10790    1.000
    I9       I        0.23829    0.84752    0.32909    1.000
    I10      I        0.37383    0.81046    0.45496    1.000
    Cu9      Cu       0.28471    0.76181    0.36405    1.000
    Cu10     Cu       0.26793    0.83951    0.44221    1.000
    N9       N        0.34340    0.76150    0.29343    1.000
    N10      N        0.31210    0.93650    0.47693    1.000
    C25      C        0.29950    0.72930    0.24143    1.000
    H49      H        0.27900    0.75680    0.22863    1.000
    H50      H        0.26210    0.68320    0.25173    1.000
    C26      C        0.39530    0.83240    0.27753    1.000
    H51      H        0.42670    0.85420    0.31073    1.000
    H52      H        0.37260    0.85900    0.26903    1.000
    C27      C        0.38050    0.72380    0.31033    1.000
    H53      H        0.34720    0.67540    0.31823    1.000
    H54      H        0.40740    0.74400    0.34623    1.000
    C28      C        0.26290    0.96560    0.48293    1.000
    H55      H        0.22120    0.93220    0.50363    1.000
    H56      H        0.24960    0.97290    0.44363    1.000
    C29      C        0.34020    0.93750    0.53773    1.000
    H57      H        0.36720    0.91420    0.53653    1.000
    H58      H        0.30180    0.91230    0.56513    1.000
    C30      C        0.37330    0.98640    0.43933    1.000
    H59      H        0.35880    0.98330    0.39823    1.000
    H60      H        0.40930    0.97400    0.44123    1.000
    I11      I        0.15248    0.39077    0.66243    1.000
    I12      I        0.18954    0.56337    0.78830    1.000
    Cu11     Cu       0.23819    0.52290    0.69739    1.000
    Cu12     Cu       0.16049    0.42842    0.77555    1.000
    N11      N        0.23850    0.58190    0.62677    1.000
    N12      N        0.06350    0.37560    0.81027    1.000
    C31      C        0.27070    0.57020    0.57477    1.000
    H61      H        0.24320    0.52220    0.56197    1.000
    H62      H        0.31680    0.57890    0.58507    1.000
    C32      C        0.16760    0.56290    0.61087    1.000
    H63      H        0.14580    0.57250    0.64407    1.000
    H64      H        0.14100    0.51360    0.60237    1.000
    C33      C        0.27620    0.65670    0.64367    1.000
    H65      H        0.32460    0.67180    0.65157    1.000
    H66      H        0.25600    0.66340    0.67957    1.000
    C34      C        0.03440    0.29730    0.81627    1.000
    H67      H        0.06780    0.28900    0.83697    1.000
    H68      H        0.02710    0.27670    0.77697    1.000
    C35      C        0.06250    0.40270    0.87107    1.000
    H69      H        0.08580    0.45300    0.86987    1.000
    H70      H        0.08770    0.38950    0.89847    1.000
    C36      C        0.01360    0.38690    0.77267    1.000
    H71      H        0.01670    0.37550    0.73157    1.000
    H72      H        0.02600    0.43530    0.77457    1.000
    I13      I        0.23829    0.39077    0.83757    1.000
    I14      I        0.37383    0.56337    0.71170    1.000
    Cu13     Cu       0.28471    0.52290    0.80261    1.000
    Cu14     Cu       0.26793    0.42842    0.72445    1.000
    N13      N        0.34340    0.58190    0.87323    1.000
    N14      N        0.31210    0.37560    0.68973    1.000
    C37      C        0.29950    0.57020    0.92523    1.000
    H73      H        0.27900    0.52220    0.93803    1.000
    H74      H        0.26210    0.57890    0.91493    1.000
    C38      C        0.39530    0.56290    0.88913    1.000
    H75      H        0.42670    0.57250    0.85593    1.000
    H76      H        0.37260    0.51360    0.89763    1.000
    C39      C        0.38050    0.65670    0.85633    1.000
    H77      H        0.34720    0.67180    0.84843    1.000
    H78      H        0.40740    0.66340    0.82043    1.000
    C40      C        0.26290    0.29730    0.68373    1.000
    H79      H        0.22120    0.28900    0.66303    1.000
    H80      H        0.24960    0.27670    0.72303    1.000
    C41      C        0.34020    0.40270    0.62893    1.000
    H81      H        0.36720    0.45300    0.63013    1.000
    H82      H        0.30180    0.38950    0.60153    1.000
    C42      C        0.37330    0.38690    0.72733    1.000
    H83      H        0.35880    0.37550    0.76843    1.000
    H84      H        0.40930    0.43530    0.72543    1.000
    I15      I        0.15248    0.76171    0.50424    1.000
    I16      I        0.18954    0.62617    0.37837    1.000
    Cu15     Cu       0.23819    0.71529    0.46928    1.000
    Cu16     Cu       0.16049    0.73207    0.39112    1.000
    N15      N        0.23850    0.65660    0.53990    1.000
    N16      N        0.06350    0.68790    0.35640    1.000
    C43      C        0.27070    0.70050    0.59190    1.000
    H85      H        0.24320    0.72100    0.60470    1.000
    H86      H        0.31680    0.73790    0.58160    1.000
    C44      C        0.16760    0.60470    0.55580    1.000
    H87      H        0.14580    0.57330    0.52260    1.000
    H88      H        0.14100    0.62740    0.56430    1.000
    C45      C        0.27620    0.61950    0.52300    1.000
    H89      H        0.32460    0.65280    0.51510    1.000
    H90      H        0.25600    0.59260    0.48710    1.000
    C46      C        0.03440    0.73710    0.35040    1.000
    H91      H        0.06780    0.77880    0.32970    1.000
    H92      H        0.02710    0.75040    0.38970    1.000
    C47      C        0.06250    0.65980    0.29560    1.000
    H93      H        0.08580    0.63280    0.29680    1.000
    H94      H        0.08770    0.69820    0.26820    1.000
    C48      C        0.01360    0.62670    0.39400    1.000
    H95      H        0.01670    0.64120    0.43510    1.000
    H96      H        0.02600    0.59070    0.39210    1.000
    I17      I        0.60923    0.84752    0.17091    1.000
    I18      I        0.43663    0.81046    0.04504    1.000
    Cu17     Cu       0.47710    0.76181    0.13595    1.000
    Cu18     Cu       0.57158    0.83951    0.05779    1.000
    N17      N        0.41810    0.76150    0.20657    1.000
    N18      N        0.62440    0.93650    0.02307    1.000
    C49      C        0.42980    0.72930    0.25857    1.000
    H97      H        0.47780    0.75680    0.27137    1.000
    H98      H        0.42110    0.68320    0.24827    1.000
    C50      C        0.43710    0.83240    0.22247    1.000
    H99      H        0.42750    0.85420    0.18927    1.000
    H100     H        0.48640    0.85900    0.23097    1.000
    C51      C        0.34330    0.72380    0.18967    1.000
    H101     H        0.32820    0.67540    0.18177    1.000
    H102     H        0.33660    0.74400    0.15377    1.000
    C52      C        0.70270    0.96560    0.01707    1.000
    H103     H        0.71100    0.93220    0.99637    1.000
    H104     H        0.72330    0.97290    0.05637    1.000
    C53      C        0.59730    0.93750    0.96227    1.000
    H105     H        0.54700    0.91420    0.96347    1.000
    H106     H        0.61050    0.91230    0.93487    1.000
    C54      C        0.61310    0.98640    0.06067    1.000
    H107     H        0.62450    0.98330    0.10177    1.000
    H108     H        0.56470    0.97400    0.05877    1.000
    I19      I        0.76171    0.60923    0.33757    1.000
    I20      I        0.62617    0.43663    0.21170    1.000
    Cu19     Cu       0.71529    0.47710    0.30261    1.000
    Cu20     Cu       0.73207    0.57158    0.22445    1.000
    N19      N        0.65660    0.41810    0.37323    1.000
    N20      N        0.68790    0.62440    0.18973    1.000
    C55      C        0.70050    0.42980    0.42523    1.000
    H109     H        0.72100    0.47780    0.43803    1.000
    H110     H        0.73790    0.42110    0.41493    1.000
    C56      C        0.60470    0.43710    0.38913    1.000
    H111     H        0.57330    0.42750    0.35593    1.000
    H112     H        0.62740    0.48640    0.39763    1.000
    C57      C        0.61950    0.34330    0.35633    1.000
    H113     H        0.65280    0.32820    0.34843    1.000
    H114     H        0.59260    0.33660    0.32043    1.000
    C58      C        0.73710    0.70270    0.18373    1.000
    H115     H        0.77880    0.71100    0.16303    1.000
    H116     H        0.75040    0.72330    0.22303    1.000
    C59      C        0.65980    0.59730    0.12893    1.000
    H117     H        0.63280    0.54700    0.13013    1.000
    H118     H        0.69820    0.61050    0.10153    1.000
    C60      C        0.62670    0.61310    0.22733    1.000
    H119     H        0.64120    0.62450    0.26843    1.000
    H120     H        0.59070    0.56470    0.22543    1.000
    I21      I        0.84752    0.23829    0.00424    1.000
    I22      I        0.81046    0.37383    0.87837    1.000
    Cu21     Cu       0.76181    0.28471    0.96928    1.000
    Cu22     Cu       0.83951    0.26793    0.89112    1.000
    N21      N        0.76150    0.34340    0.03990    1.000
    N22      N        0.93650    0.31210    0.85640    1.000
    C61      C        0.72930    0.29950    0.09190    1.000
    H121     H        0.75680    0.27900    0.10470    1.000
    H122     H        0.68320    0.26210    0.08160    1.000
    C62      C        0.83240    0.39530    0.05580    1.000
    H123     H        0.85420    0.42670    0.02260    1.000
    H124     H        0.85900    0.37260    0.06430    1.000
    C63      C        0.72380    0.38050    0.02300    1.000
    H125     H        0.67540    0.34720    0.01510    1.000
    H126     H        0.74400    0.40740    0.98710    1.000
    C64      C        0.96560    0.26290    0.85040    1.000
    H127     H        0.93220    0.22120    0.82970    1.000
    H128     H        0.97290    0.24960    0.88970    1.000
    C65      C        0.93750    0.34020    0.79560    1.000
    H129     H        0.91420    0.36720    0.79680    1.000
    H130     H        0.91230    0.30180    0.76820    1.000
    C66      C        0.98640    0.37330    0.89400    1.000
    H131     H        0.98330    0.35880    0.93510    1.000
    H132     H        0.97400    0.40930    0.89210    1.000
    I23      I        0.39077    0.15248    0.67091    1.000
    I24      I        0.56337    0.18954    0.54504    1.000
    Cu23     Cu       0.52290    0.23819    0.63595    1.000
    Cu24     Cu       0.42842    0.16049    0.55779    1.000
    N23      N        0.58190    0.23850    0.70657    1.000
    N24      N        0.37560    0.06350    0.52307    1.000
    C67      C        0.57020    0.27070    0.75857    1.000
    H133     H        0.52220    0.24320    0.77137    1.000
    H134     H        0.57890    0.31680    0.74827    1.000
    C68      C        0.56290    0.16760    0.72247    1.000
    H135     H        0.57250    0.14580    0.68927    1.000
    H136     H        0.51360    0.14100    0.73097    1.000
    C69      C        0.65670    0.27620    0.68967    1.000
    H137     H        0.67180    0.32460    0.68177    1.000
    H138     H        0.66340    0.25600    0.65377    1.000
    C70      C        0.29730    0.03440    0.51707    1.000
    H139     H        0.28900    0.06780    0.49637    1.000
    H140     H        0.27670    0.02710    0.55637    1.000
    C71      C        0.40270    0.06250    0.46227    1.000
    H141     H        0.45300    0.08580    0.46347    1.000
    H142     H        0.38950    0.08770    0.43487    1.000
    C72      C        0.38690    0.01360    0.56067    1.000
    H143     H        0.37550    0.01670    0.60177    1.000
    H144     H        0.43530    0.02600    0.55877    1.000
    Cu25     Cu       0.85862    0.77425    0.39303    1.000
    N25      N        0.80110    0.79270    0.34330    1.000
    N26      N        0.76780    0.85040    0.28340    1.000
    C73      C        0.88890    0.87500    0.27360    1.000
    C74      C        0.92570    0.94910    0.27250    1.000
    H145     H        0.90430    0.97280    0.28710    1.000
    C75      C        0.81760    0.83900    0.29970    1.000
    C76      C        0.73230    0.77270    0.35620    1.000
    C77      C        0.71200    0.80820    0.31940    1.000
    C78      C        0.64460    0.80010    0.32410    1.000
    H146     H        0.63150    0.82570    0.30000    1.000
    C79      C        0.59810    0.75240    0.36600    1.000
    H147     H        0.55310    0.74460    0.36950    1.000
    C80      C        0.62150    0.71700    0.40220    1.000
    H148     H        0.59090    0.68680    0.43060    1.000
    C81      C        0.68710    0.72390    0.39890    1.000
    H149     H        0.70040    0.69830    0.42280    1.000
    Cu26     Cu       0.22575    0.08437    0.72636    1.000
    N27      N        0.20730    0.00840    0.67663    1.000
    N28      N        0.14960    0.91740    0.61673    1.000
    C82      C        0.12500    0.01390    0.60693    1.000
    C83      C        0.05090    0.97660    0.60583    1.000
    H150     H        0.02720    0.93150    0.62043    1.000
    C84      C        0.16100    0.97860    0.63303    1.000
    C85      C        0.22730    0.95960    0.68953    1.000
    C86      C        0.19180    0.90380    0.65273    1.000
    C87      C        0.19990    0.84450    0.65743    1.000
    H151     H        0.17430    0.80580    0.63333    1.000
    C88      C        0.24760    0.84570    0.69933    1.000
    H152     H        0.25540    0.80850    0.70283    1.000
    C89      C        0.28300    0.90450    0.73553    1.000
    H153     H        0.31320    0.90410    0.76393    1.000
    C90      C        0.27610    0.96320    0.73223    1.000
    H154     H        0.30170    0.00210    0.75613    1.000
    Cu27     Cu       0.91563    0.14138    0.05970    1.000
    N29      N        0.99160    0.19890    0.00997    1.000
    N30      N        0.08260    0.23220    0.95007    1.000
    C91      C        0.98610    0.11110    0.94027    1.000
    C92      C        0.02340    0.07430    0.93917    1.000
    H155     H        0.06850    0.09570    0.95377    1.000
    C93      C        0.02140    0.18240    0.96637    1.000
    C94      C        0.04040    0.26770    0.02287    1.000
    C95      C        0.09620    0.28800    0.98607    1.000
    C96      C        0.15550    0.35540    0.99077    1.000
    H156     H        0.19420    0.36850    0.96667    1.000
    C97      C        0.15430    0.40190    0.03267    1.000
    H157     H        0.19150    0.44690    0.03617    1.000
    C98      C        0.09550    0.37850    0.06887    1.000
    H158     H        0.09590    0.40910    0.09727    1.000
    C99      C        0.03680    0.31290    0.06557    1.000
    H159     H        0.99790    0.29960    0.08947    1.000
    Cu28     Cu       0.14138    0.22575    0.89303    1.000
    N31      N        0.19890    0.20730    0.84330    1.000
    N32      N        0.23220    0.14960    0.78340    1.000
    C100     C        0.11110    0.12500    0.77360    1.000
    C101     C        0.07430    0.05090    0.77250    1.000
    H160     H        0.09570    0.02720    0.78710    1.000
    C102     C        0.18240    0.16100    0.79970    1.000
    C103     C        0.26770    0.22730    0.85620    1.000
    C104     C        0.28800    0.19180    0.81940    1.000
    C105     C        0.35540    0.19990    0.82410    1.000
    H161     H        0.36850    0.17430    0.80000    1.000
    C106     C        0.40190    0.24760    0.86600    1.000
    H162     H        0.44690    0.25540    0.86950    1.000
    C107     C        0.37850    0.28300    0.90220    1.000
    H163     H        0.40910    0.31320    0.93060    1.000
    C108     C        0.31290    0.27610    0.89890    1.000
    H164     H        0.29960    0.30170    0.92280    1.000
    Cu29     Cu       0.77425    0.91563    0.22636    1.000
    N33      N        0.79270    0.99160    0.17663    1.000
    N34      N        0.85040    0.08260    0.11673    1.000
    C109     C        0.87500    0.98610    0.10693    1.000
    C110     C        0.94910    0.02340    0.10583    1.000
    H165     H        0.97280    0.06850    0.12043    1.000
    C111     C        0.83900    0.02140    0.13303    1.000
    C112     C        0.77270    0.04040    0.18953    1.000
    C113     C        0.80820    0.09620    0.15273    1.000
    C114     C        0.80010    0.15550    0.15743    1.000
    H166     H        0.82570    0.19420    0.13333    1.000
    C115     C        0.75240    0.15430    0.19933    1.000
    H167     H        0.74460    0.19150    0.20283    1.000
    C116     C        0.71700    0.09550    0.23553    1.000
    H168     H        0.68680    0.09590    0.26393    1.000
    C117     C        0.72390    0.03680    0.23223    1.000
    H169     H        0.69830    0.99790    0.25613    1.000
    Cu30     Cu       0.08437    0.85862    0.55970    1.000
    N35      N        0.00840    0.80110    0.50997    1.000
    N36      N        0.91740    0.76780    0.45007    1.000
    C118     C        0.01390    0.88890    0.44027    1.000
    C119     C        0.97660    0.92570    0.43917    1.000
    H170     H        0.93150    0.90430    0.45377    1.000
    C120     C        0.97860    0.81760    0.46637    1.000
    C121     C        0.95960    0.73230    0.52287    1.000
    C122     C        0.90380    0.71200    0.48607    1.000
    C123     C        0.84450    0.64460    0.49077    1.000
    H171     H        0.80580    0.63150    0.46667    1.000
    C124     C        0.84570    0.59810    0.53267    1.000
    H172     H        0.80850    0.55310    0.53617    1.000
    C125     C        0.90450    0.62150    0.56887    1.000
    H173     H        0.90410    0.59090    0.59727    1.000
    C126     C        0.96320    0.68710    0.56557    1.000
    H174     H        0.00210    0.70040    0.58947    1.000
    Cu31     Cu       0.77425    0.85862    0.94030    1.000
    N37      N        0.79270    0.80110    0.99003    1.000
    N38      N        0.85040    0.76780    0.04993    1.000
    C127     C        0.87500    0.88890    0.05973    1.000
    C128     C        0.94910    0.92570    0.06083    1.000
    H175     H        0.97280    0.90430    0.04623    1.000
    C129     C        0.83900    0.81760    0.03363    1.000
    C130     C        0.77270    0.73230    0.97713    1.000
    C131     C        0.80820    0.71200    0.01393    1.000
    C132     C        0.80010    0.64460    0.00923    1.000
    H176     H        0.82570    0.63150    0.03333    1.000
    C133     C        0.75240    0.59810    0.96733    1.000
    H177     H        0.74460    0.55310    0.96383    1.000
    C134     C        0.71700    0.62150    0.93113    1.000
    H178     H        0.68680    0.59090    0.90273    1.000
    C135     C        0.72390    0.68710    0.93443    1.000
    H179     H        0.69830    0.70040    0.91053    1.000
    Cu32     Cu       0.08437    0.22575    0.60697    1.000
    N39      N        0.00840    0.20730    0.65670    1.000
    N40      N        0.91740    0.14960    0.71660    1.000
    C136     C        0.01390    0.12500    0.72640    1.000
    C137     C        0.97660    0.05090    0.72750    1.000
    H180     H        0.93150    0.02720    0.71290    1.000
    C138     C        0.97860    0.16100    0.70030    1.000
    C139     C        0.95960    0.22730    0.64380    1.000
    C140     C        0.90380    0.19180    0.68060    1.000
    C141     C        0.84450    0.19990    0.67590    1.000
    H181     H        0.80580    0.17430    0.70000    1.000
    C142     C        0.84570    0.24760    0.63400    1.000
    H182     H        0.80850    0.25540    0.63050    1.000
    C143     C        0.90450    0.28300    0.59780    1.000
    H183     H        0.90410    0.31320    0.56940    1.000
    C144     C        0.96320    0.27610    0.60110    1.000
    H184     H        0.00210    0.30170    0.57720    1.000
    Cu33     Cu       0.14138    0.91563    0.27364    1.000
    N41      N        0.19890    0.99160    0.32337    1.000
    N42      N        0.23220    0.08260    0.38327    1.000
    C145     C        0.11110    0.98610    0.39307    1.000
    C146     C        0.07430    0.02340    0.39417    1.000
    H185     H        0.09570    0.06850    0.37957    1.000
    C147     C        0.18240    0.02140    0.36697    1.000
    C148     C        0.26770    0.04040    0.31047    1.000
    C149     C        0.28800    0.09620    0.34727    1.000
    C150     C        0.35540    0.15550    0.34257    1.000
    H186     H        0.36850    0.19420    0.36667    1.000
    C151     C        0.40190    0.15430    0.30067    1.000
    H187     H        0.44690    0.19150    0.29717    1.000
    C152     C        0.37850    0.09550    0.26447    1.000
    H188     H        0.40910    0.09590    0.23607    1.000
    C153     C        0.31290    0.03680    0.26777    1.000
    H189     H        0.29960    0.99790    0.24387    1.000
    Cu34     Cu       0.22575    0.14138    0.44030    1.000
    N43      N        0.20730    0.19890    0.49003    1.000
    N44      N        0.14960    0.23220    0.54993    1.000
    C154     C        0.12500    0.11110    0.55973    1.000
    C155     C        0.05090    0.07430    0.56083    1.000
    H190     H        0.02720    0.09570    0.54623    1.000
    C156     C        0.16100    0.18240    0.53363    1.000
    C157     C        0.22730    0.26770    0.47713    1.000
    C158     C        0.19180    0.28800    0.51393    1.000
    C159     C        0.19990    0.35540    0.50923    1.000
    H191     H        0.17430    0.36850    0.53333    1.000
    C160     C        0.24760    0.40190    0.46733    1.000
    H192     H        0.25540    0.44690    0.46383    1.000
    C161     C        0.28300    0.37850    0.43113    1.000
    H193     H        0.31320    0.40910    0.40273    1.000
    C162     C        0.27610    0.31290    0.43443    1.000
    H194     H        0.30170    0.29960    0.41053    1.000
    Cu35     Cu       0.91563    0.77425    0.10697    1.000
    N45      N        0.99160    0.79270    0.15670    1.000
    N46      N        0.08260    0.85040    0.21660    1.000
    C163     C        0.98610    0.87500    0.22640    1.000
    C164     C        0.02340    0.94910    0.22750    1.000
    H195     H        0.06850    0.97280    0.21290    1.000
    C165     C        0.02140    0.83900    0.20030    1.000
    C166     C        0.04040    0.77270    0.14380    1.000
    C167     C        0.09620    0.80820    0.18060    1.000
    C168     C        0.15550    0.80010    0.17590    1.000
    H196     H        0.19420    0.82570    0.20000    1.000
    C169     C        0.15430    0.75240    0.13400    1.000
    H197     H        0.19150    0.74460    0.13050    1.000
    C170     C        0.09550    0.71700    0.09780    1.000
    H198     H        0.09590    0.68680    0.06940    1.000
    C171     C        0.03680    0.72390    0.10110    1.000
    H199     H        0.99790    0.69830    0.07720    1.000
    Cu36     Cu       0.85862    0.08437    0.77364    1.000
    N47      N        0.80110    0.00840    0.82337    1.000
    N48      N        0.76780    0.91740    0.88327    1.000
    C172     C        0.88890    0.01390    0.89307    1.000
    C173     C        0.92570    0.97660    0.89417    1.000
    H200     H        0.90430    0.93150    0.87957    1.000
    C174     C        0.81760    0.97860    0.86697    1.000
    C175     C        0.73230    0.95960    0.81047    1.000
    C176     C        0.71200    0.90380    0.84727    1.000
    C177     C        0.64460    0.84450    0.84257    1.000
    H201     H        0.63150    0.80580    0.86667    1.000
    C178     C        0.59810    0.84570    0.80067    1.000
    H202     H        0.55310    0.80850    0.79717    1.000
    C179     C        0.62150    0.90450    0.76447    1.000
    H203     H        0.59090    0.90410    0.73607    1.000
    C180     C        0.68710    0.96320    0.76777    1.000
    H204     H        0.70040    0.00210    0.74387    1.000
    C181     C        0.99350    0.98700    0.25000    1.000
    H205     H        0.01770    0.03540    0.25000    1.000
    C182     C        0.92165    0.84330    0.25000    1.000
    H206     H        0.89750    0.79500    0.25000    1.000
    C183     C        0.01300    0.00650    0.58333    1.000
    H207     H        0.96460    0.98230    0.58333    1.000
    C184     C        0.15670    0.07835    0.58333    1.000
    H208     H        0.20500    0.10250    0.58333    1.000
    C185     C        0.99350    0.00650    0.91667    1.000
    H209     H        0.01770    0.98230    0.91667    1.000
    C186     C        0.92165    0.07835    0.91667    1.000
    H210     H        0.89750    0.10250    0.91667    1.000
    C187     C        0.00650    0.01300    0.75000    1.000
    H211     H        0.98230    0.96460    0.75000    1.000
    C188     C        0.07835    0.15670    0.75000    1.000
    H212     H        0.10250    0.20500    0.75000    1.000
    C189     C        0.98700    0.99350    0.08333    1.000
    H213     H        0.03540    0.01770    0.08333    1.000
    C190     C        0.84330    0.92165    0.08333    1.000
    H214     H        0.79500    0.89750    0.08333    1.000
    C191     C        0.00650    0.99350    0.41667    1.000
    H215     H        0.98230    0.01770    0.41667    1.000
    C192     C        0.07835    0.92165    0.41667    1.000
    H216     H        0.10250    0.89750    0.41667    1.000
