# CIF file generated by openbabel 3.1.0, see https://openbabel.org
data_I
_chemical_name_common 'image0'
_cell_length_a 16.955
_cell_length_b 9.543
_cell_length_c 18.549
_cell_angle_alpha 90
_cell_angle_beta 90.01
_cell_angle_gamma 90
_space_group_name_H-M_alt 'P 1'
_space_group_name_Hall 'P 1'
loop_
    _symmetry_equiv_pos_as_xyz
    x,y,z
loop_
    _atom_site_label
    _atom_site_type_symbol
    _atom_site_fract_x
    _atom_site_fract_y
    _atom_site_fract_z
    _atom_site_occupancy
    Cd1      Cd       0.41415    0.91346    0.63139    1.000
    Cd2      Cd       0.08065    0.75183    0.56832    1.000
    O1       O        0.49210    0.75780    0.69310    1.000
    O2       O        0.38040    0.76620    0.75720    1.000
    O3       O        0.55510    0.57900    0.78630    1.000
    O4       O        0.44430    0.58220    0.85180    1.000
    O5       O        0.41120    0.06660    0.53490    1.000
    O6       O        0.49010    0.15850    0.45330    1.000
    O7       O        0.28190    0.97770    0.65690    1.000
    O8       O        0.15820    0.92270    0.63000    1.000
    O9       O        0.33370    0.76670    0.57050    1.000
    O10      O        0.21100    0.71870    0.54210    1.000
    O11      O        0.06730    0.88030    0.46330    1.000
    O12      O        0.01300    0.06860    0.41320    1.000
    O13      O        0.95980    0.63950    0.54920    1.000
    O14      O        0.90030    0.46520    0.49000    1.000
    C1       C        0.44970    0.72280    0.74530    1.000
    C2       C        0.48590    0.61930    0.80020    1.000
    C3       C        0.47200    0.06660    0.49580    1.000
    C4       C        0.23040    0.90560    0.62520    1.000
    C5       C        0.26020    0.78610    0.57540    1.000
    C6       C        0.02280    0.98760    0.46420    1.000
    C7       C        0.95880    0.53180    0.51180    1.000
    Cd3      Cd       0.58585    0.41346    0.86861    1.000
    Cd4      Cd       0.91935    0.25183    0.93168    1.000
    O15      O        0.50790    0.25780    0.80690    1.000
    O16      O        0.61960    0.26620    0.74280    1.000
    O17      O        0.44490    0.07900    0.71370    1.000
    O18      O        0.55570    0.08220    0.64820    1.000
    O19      O        0.58880    0.56660    0.96510    1.000
    O20      O        0.50990    0.65850    0.04670    1.000
    O21      O        0.71810    0.47770    0.84310    1.000
    O22      O        0.84180    0.42270    0.87000    1.000
    O23      O        0.66630    0.26670    0.92950    1.000
    O24      O        0.78900    0.21870    0.95790    1.000
    O25      O        0.93270    0.38030    0.03670    1.000
    O26      O        0.98700    0.56860    0.08680    1.000
    O27      O        0.04020    0.13950    0.95080    1.000
    O28      O        0.09970    0.96520    0.01000    1.000
    C8       C        0.55030    0.22280    0.75470    1.000
    C9       C        0.51410    0.11930    0.69980    1.000
    C10      C        0.52800    0.56660    0.00420    1.000
    C11      C        0.76960    0.40560    0.87480    1.000
    C12      C        0.73980    0.28610    0.92460    1.000
    C13      C        0.97720    0.48760    0.03580    1.000
    C14      C        0.04120    0.03180    0.98820    1.000
    Cd5      Cd       0.58585    0.08654    0.36861    1.000
    Cd6      Cd       0.91935    0.24817    0.43168    1.000
    O29      O        0.50790    0.24220    0.30690    1.000
    O30      O        0.61960    0.23380    0.24280    1.000
    O31      O        0.44490    0.42100    0.21370    1.000
    O32      O        0.55570    0.41780    0.14820    1.000
    O33      O        0.58880    0.93340    0.46510    1.000
    O34      O        0.50990    0.84150    0.54670    1.000
    O35      O        0.71810    0.02230    0.34310    1.000
    O36      O        0.84180    0.07730    0.37000    1.000
    O37      O        0.66630    0.23330    0.42950    1.000
    O38      O        0.78900    0.28130    0.45790    1.000
    O39      O        0.93270    0.11970    0.53670    1.000
    O40      O        0.98700    0.93140    0.58680    1.000
    O41      O        0.04020    0.36050    0.45080    1.000
    O42      O        0.09970    0.53480    0.51000    1.000
    C15      C        0.55030    0.27720    0.25470    1.000
    C16      C        0.51410    0.38070    0.19980    1.000
    C17      C        0.52800    0.93340    0.50420    1.000
    C18      C        0.76960    0.09440    0.37480    1.000
    C19      C        0.73980    0.21390    0.42460    1.000
    C20      C        0.97720    0.01240    0.53580    1.000
    C21      C        0.04120    0.46820    0.48820    1.000
    Cd7      Cd       0.41415    0.58654    0.13139    1.000
    Cd8      Cd       0.08065    0.74817    0.06832    1.000
    O43      O        0.49210    0.74220    0.19310    1.000
    O44      O        0.38040    0.73380    0.25720    1.000
    O45      O        0.55510    0.92100    0.28630    1.000
    O46      O        0.44430    0.91780    0.35180    1.000
    O47      O        0.41120    0.43340    0.03490    1.000
    O48      O        0.49010    0.34150    0.95330    1.000
    O49      O        0.28190    0.52230    0.15690    1.000
    O50      O        0.15820    0.57730    0.13000    1.000
    O51      O        0.33370    0.73330    0.07050    1.000
    O52      O        0.21100    0.78130    0.04210    1.000
    O53      O        0.06730    0.61970    0.96330    1.000
    O54      O        0.01300    0.43140    0.91320    1.000
    O55      O        0.95980    0.86050    0.04920    1.000
    O56      O        0.90030    0.03480    0.99000    1.000
    C22      C        0.44970    0.77720    0.24530    1.000
    C23      C        0.48590    0.88070    0.30020    1.000
    C24      C        0.47200    0.43340    0.99580    1.000
    C25      C        0.23040    0.59440    0.12520    1.000
    C26      C        0.26020    0.71390    0.07540    1.000
    C27      C        0.02280    0.51240    0.96420    1.000
    C28      C        0.95880    0.96820    0.01180    1.000
