# CIF file generated by openbabel 3.1.0, see https://openbabel.org
data_I
_chemical_name_common 'image0'
_cell_length_a 24.836
_cell_length_b 9.6903
_cell_length_c 21.6527
_cell_angle_alpha 90
_cell_angle_beta 103.244
_cell_angle_gamma 90
_space_group_name_H-M_alt 'P 1'
_space_group_name_Hall 'P 1'
loop_
    _symmetry_equiv_pos_as_xyz
    x,y,z
loop_
    _atom_site_label
    _atom_site_type_symbol
    _atom_site_fract_x
    _atom_site_fract_y
    _atom_site_fract_z
    _atom_site_occupancy
    Cu1      Cu       0.70213    0.08463    0.53012    1.000
    Cl1      Cl       0.71410    0.31850    0.80150    1.000
    O1       O        0.73536    0.29990    0.56535    1.000
    O2       O        0.81001    0.42480    0.56186    1.000
    O3       O        0.79391    0.55090    0.88010    1.000
    O4       O        0.85740    0.38230    0.89941    1.000
    N1       N        0.62457    0.15540    0.51774    1.000
    N2       N        0.27670    0.49630    0.54019    1.000
    C1       C        0.77691    0.36920    0.59039    1.000
    C2       C        0.78861    0.39040    0.66019    1.000
    C3       C        0.81120    0.43160    0.79378    1.000
    C4       C        0.75115    0.35090    0.69500    1.000
    H1       H        0.71740    0.30920    0.67370    1.000
    C5       C        0.76140    0.37040    0.76110    1.000
    C6       C        0.85090    0.47160    0.75900    1.000
    H2       H        0.88500    0.51140    0.78040    1.000
    C7       C        0.83940    0.45190    0.69270    1.000
    H3       H        0.86570    0.47990    0.66950    1.000
    C8       C        0.82246    0.45240    0.86397    1.000
    C9       C        0.58318    0.10780    0.47230    1.000
    H4       H        0.59160    0.04550    0.44200    1.000
    C10      C        0.52846    0.14510    0.46720    1.000
    H5       H        0.50000    0.10670    0.43480    1.000
    C11      C        0.51565    0.23940    0.51004    1.000
    C12      C        0.55924    0.28990    0.55660    1.000
    H6       H        0.55250    0.35500    0.58680    1.000
    C13      C        0.61211    0.24560    0.55880    1.000
    H7       H        0.64130    0.28100    0.59120    1.000
    C14      C        0.45756    0.27760    0.50610    1.000
    H8       H        0.42980    0.23560    0.47410    1.000
    C15      C        0.44182    0.36750    0.54480    1.000
    H9       H        0.47000    0.40970    0.57620    1.000
    C16      C        0.38444    0.40680    0.54300    1.000
    C17      C        0.37364    0.50290    0.58590    1.000
    H10      H        0.40330    0.54170    0.61670    1.000
    C18      C        0.31997    0.54230    0.58412    1.000
    H11      H        0.31340    0.60480    0.61540    1.000
    C19      C        0.28679    0.40210    0.49841    1.000
    H12      H        0.25650    0.36730    0.46730    1.000
    C20      C        0.33899    0.35400    0.49873    1.000
    H13      H        0.34410    0.28560    0.46920    1.000
    Cl2      Cl       0.73460    0.24930    0.80960    1.000
    Cl3      Cl       0.89170    0.62210    0.79360    1.000
    Cl4      Cl       0.82600    0.65610    0.64810    1.000
    C21      C        0.75821    0.31490    0.69795    1.000
    H14      H        0.73040    0.25110    0.67860    1.000
    C22      C        0.77013    0.33640    0.76383    1.000
    C23      C        0.84106    0.50460    0.75601    1.000
    H15      H        0.86900    0.56800    0.77540    1.000
    C24      C        0.82979    0.48410    0.68999    1.000
    H16      H        0.85020    0.53410    0.66520    1.000
    H17      H        0.75020    0.28590    0.78890    1.000
    C25      C        0.77820    0.28740    0.70030    1.000
    H18      H        0.76380    0.20170    0.68260    1.000
    C26      C        0.78850    0.30580    0.76660    1.000
    H19      H        0.78010    0.23410    0.79290    1.000
    C27      C        0.82170    0.53880    0.75350    1.000
    H20      H        0.83560    0.62490    0.77110    1.000
    C28      C        0.81140    0.51780    0.68750    1.000
    Cu2      Cu       0.20213    0.58463    0.53012    1.000
    Cl5      Cl       0.21410    0.81850    0.80150    1.000
    O5       O        0.23536    0.79990    0.56535    1.000
    O6       O        0.31001    0.92480    0.56186    1.000
    O7       O        0.29391    0.05090    0.88010    1.000
    O8       O        0.35740    0.88230    0.89941    1.000
    N3       N        0.12457    0.65540    0.51774    1.000
    N4       N        0.77670    0.99630    0.54019    1.000
    C29      C        0.27691    0.86920    0.59039    1.000
    C30      C        0.28861    0.89040    0.66019    1.000
    C31      C        0.31120    0.93160    0.79378    1.000
    C32      C        0.25115    0.85090    0.69500    1.000
    H21      H        0.21740    0.80920    0.67370    1.000
    C33      C        0.26140    0.87040    0.76110    1.000
    C34      C        0.35090    0.97160    0.75900    1.000
    H22      H        0.38500    0.01140    0.78040    1.000
    C35      C        0.33940    0.95190    0.69270    1.000
    H23      H        0.36570    0.97990    0.66950    1.000
    C36      C        0.32246    0.95240    0.86397    1.000
    C37      C        0.08318    0.60780    0.47230    1.000
    H24      H        0.09160    0.54550    0.44200    1.000
    C38      C        0.02846    0.64510    0.46720    1.000
    H25      H        0.00000    0.60670    0.43480    1.000
    C39      C        0.01565    0.73940    0.51004    1.000
    C40      C        0.05924    0.78990    0.55660    1.000
    H26      H        0.05250    0.85500    0.58680    1.000
    C41      C        0.11211    0.74560    0.55880    1.000
    H27      H        0.14130    0.78100    0.59120    1.000
    C42      C        0.95756    0.77760    0.50610    1.000
    H28      H        0.92980    0.73560    0.47410    1.000
    C43      C        0.94182    0.86750    0.54480    1.000
    H29      H        0.97000    0.90970    0.57620    1.000
    C44      C        0.88444    0.90680    0.54300    1.000
    C45      C        0.87364    0.00290    0.58590    1.000
    H30      H        0.90330    0.04170    0.61670    1.000
    C46      C        0.81997    0.04230    0.58412    1.000
    H31      H        0.81340    0.10480    0.61540    1.000
    C47      C        0.78679    0.90210    0.49841    1.000
    H32      H        0.75650    0.86730    0.46730    1.000
    C48      C        0.83899    0.85400    0.49873    1.000
    H33      H        0.84410    0.78560    0.46920    1.000
    Cl6      Cl       0.23460    0.74930    0.80960    1.000
    Cl7      Cl       0.39170    0.12210    0.79360    1.000
    Cl8      Cl       0.32600    0.15610    0.64810    1.000
    C49      C        0.25821    0.81490    0.69795    1.000
    H34      H        0.23040    0.75110    0.67860    1.000
    C50      C        0.27013    0.83640    0.76383    1.000
    C51      C        0.34106    0.00460    0.75601    1.000
    H35      H        0.36900    0.06800    0.77540    1.000
    C52      C        0.32979    0.98410    0.68999    1.000
    H36      H        0.35020    0.03410    0.66520    1.000
    H37      H        0.25020    0.78590    0.78890    1.000
    C53      C        0.27820    0.78740    0.70030    1.000
    H38      H        0.26380    0.70170    0.68260    1.000
    C54      C        0.28850    0.80580    0.76660    1.000
    H39      H        0.28010    0.73410    0.79290    1.000
    C55      C        0.32170    0.03880    0.75350    1.000
    H40      H        0.33560    0.12490    0.77110    1.000
    C56      C        0.31140    0.01780    0.68750    1.000
    Cu3      Cu       0.29787    0.08463    0.96988    1.000
    Cl9      Cl       0.28590    0.31850    0.69850    1.000
    O9       O        0.26464    0.29990    0.93465    1.000
    O10      O        0.18999    0.42480    0.93814    1.000
    O11      O        0.20609    0.55090    0.61990    1.000
    O12      O        0.14260    0.38230    0.60059    1.000
    N5       N        0.37543    0.15540    0.98226    1.000
    N6       N        0.72330    0.49630    0.95981    1.000
    C57      C        0.22309    0.36920    0.90961    1.000
    C58      C        0.21139    0.39040    0.83981    1.000
    C59      C        0.18880    0.43160    0.70622    1.000
    C60      C        0.24885    0.35090    0.80500    1.000
    H41      H        0.28260    0.30920    0.82630    1.000
    C61      C        0.23860    0.37040    0.73890    1.000
    C62      C        0.14910    0.47160    0.74100    1.000
    H42      H        0.11500    0.51140    0.71960    1.000
    C63      C        0.16060    0.45190    0.80730    1.000
    H43      H        0.13430    0.47990    0.83050    1.000
    C64      C        0.17754    0.45240    0.63603    1.000
    C65      C        0.41682    0.10780    0.02770    1.000
    H44      H        0.40840    0.04550    0.05800    1.000
    C66      C        0.47154    0.14510    0.03280    1.000
    H45      H        0.50000    0.10670    0.06520    1.000
    C67      C        0.48435    0.23940    0.98996    1.000
    C68      C        0.44076    0.28990    0.94340    1.000
    H46      H        0.44750    0.35500    0.91320    1.000
    C69      C        0.38789    0.24560    0.94120    1.000
    H47      H        0.35870    0.28100    0.90880    1.000
    C70      C        0.54244    0.27760    0.99390    1.000
    H48      H        0.57020    0.23560    0.02590    1.000
    C71      C        0.55818    0.36750    0.95520    1.000
    H49      H        0.53000    0.40970    0.92380    1.000
    C72      C        0.61556    0.40680    0.95700    1.000
    C73      C        0.62636    0.50290    0.91410    1.000
    H50      H        0.59670    0.54170    0.88330    1.000
    C74      C        0.68003    0.54230    0.91588    1.000
    H51      H        0.68660    0.60480    0.88460    1.000
    C75      C        0.71321    0.40210    0.00159    1.000
    H52      H        0.74350    0.36730    0.03270    1.000
    C76      C        0.66101    0.35400    0.00127    1.000
    H53      H        0.65590    0.28560    0.03080    1.000
    Cl10     Cl       0.26540    0.24930    0.69040    1.000
    Cl11     Cl       0.10830    0.62210    0.70640    1.000
    Cl12     Cl       0.17400    0.65610    0.85190    1.000
    C77      C        0.24179    0.31490    0.80205    1.000
    H54      H        0.26960    0.25110    0.82140    1.000
    C78      C        0.22987    0.33640    0.73617    1.000
    C79      C        0.15894    0.50460    0.74399    1.000
    H55      H        0.13100    0.56800    0.72460    1.000
    C80      C        0.17021    0.48410    0.81001    1.000
    H56      H        0.14980    0.53410    0.83480    1.000
    H57      H        0.24980    0.28590    0.71110    1.000
    C81      C        0.22180    0.28740    0.79970    1.000
    H58      H        0.23620    0.20170    0.81740    1.000
    C82      C        0.21150    0.30580    0.73340    1.000
    H59      H        0.21990    0.23410    0.70710    1.000
    C83      C        0.17830    0.53880    0.74650    1.000
    H60      H        0.16440    0.62490    0.72890    1.000
    C84      C        0.18860    0.51780    0.81250    1.000
    Cu4      Cu       0.79787    0.58463    0.96988    1.000
    Cl13     Cl       0.78590    0.81850    0.69850    1.000
    O13      O        0.76464    0.79990    0.93465    1.000
    O14      O        0.68999    0.92480    0.93814    1.000
    O15      O        0.70609    0.05090    0.61990    1.000
    O16      O        0.64260    0.88230    0.60059    1.000
    N7       N        0.87543    0.65540    0.98226    1.000
    N8       N        0.22330    0.99630    0.95981    1.000
    C85      C        0.72309    0.86920    0.90961    1.000
    C86      C        0.71139    0.89040    0.83981    1.000
    C87      C        0.68880    0.93160    0.70622    1.000
    C88      C        0.74885    0.85090    0.80500    1.000
    H61      H        0.78260    0.80920    0.82630    1.000
    C89      C        0.73860    0.87040    0.73890    1.000
    C90      C        0.64910    0.97160    0.74100    1.000
    H62      H        0.61500    0.01140    0.71960    1.000
    C91      C        0.66060    0.95190    0.80730    1.000
    H63      H        0.63430    0.97990    0.83050    1.000
    C92      C        0.67754    0.95240    0.63603    1.000
    C93      C        0.91682    0.60780    0.02770    1.000
    H64      H        0.90840    0.54550    0.05800    1.000
    C94      C        0.97154    0.64510    0.03280    1.000
    H65      H        0.00000    0.60670    0.06520    1.000
    C95      C        0.98435    0.73940    0.98996    1.000
    C96      C        0.94076    0.78990    0.94340    1.000
    H66      H        0.94750    0.85500    0.91320    1.000
    C97      C        0.88789    0.74560    0.94120    1.000
    H67      H        0.85870    0.78100    0.90880    1.000
    C98      C        0.04244    0.77760    0.99390    1.000
    H68      H        0.07020    0.73560    0.02590    1.000
    C99      C        0.05818    0.86750    0.95520    1.000
    H69      H        0.03000    0.90970    0.92380    1.000
    C100     C        0.11556    0.90680    0.95700    1.000
    C101     C        0.12636    0.00290    0.91410    1.000
    H70      H        0.09670    0.04170    0.88330    1.000
    C102     C        0.18003    0.04230    0.91588    1.000
    H71      H        0.18660    0.10480    0.88460    1.000
    C103     C        0.21321    0.90210    0.00159    1.000
    H72      H        0.24350    0.86730    0.03270    1.000
    C104     C        0.16101    0.85400    0.00127    1.000
    H73      H        0.15590    0.78560    0.03080    1.000
    Cl14     Cl       0.76540    0.74930    0.69040    1.000
    Cl15     Cl       0.60830    0.12210    0.70640    1.000
    Cl16     Cl       0.67400    0.15610    0.85190    1.000
    C105     C        0.74179    0.81490    0.80205    1.000
    H74      H        0.76960    0.75110    0.82140    1.000
    C106     C        0.72987    0.83640    0.73617    1.000
    C107     C        0.65894    0.00460    0.74399    1.000
    H75      H        0.63100    0.06800    0.72460    1.000
    C108     C        0.67021    0.98410    0.81001    1.000
    H76      H        0.64980    0.03410    0.83480    1.000
    H77      H        0.74980    0.78590    0.71110    1.000
    C109     C        0.72180    0.78740    0.79970    1.000
    H78      H        0.73620    0.70170    0.81740    1.000
    C110     C        0.71150    0.80580    0.73340    1.000
    H79      H        0.71990    0.73410    0.70710    1.000
    C111     C        0.67830    0.03880    0.74650    1.000
    H80      H        0.66440    0.12490    0.72890    1.000
    C112     C        0.68860    0.01780    0.81250    1.000
    Cu5      Cu       0.29787    0.91537    0.46988    1.000
    Cl17     Cl       0.28590    0.68150    0.19850    1.000
    O17      O        0.26464    0.70010    0.43465    1.000
    O18      O        0.18999    0.57520    0.43814    1.000
    O19      O        0.20609    0.44910    0.11990    1.000
    O20      O        0.14260    0.61770    0.10059    1.000
    N9       N        0.37543    0.84460    0.48226    1.000
    N10      N        0.72330    0.50370    0.45981    1.000
    C113     C        0.22309    0.63080    0.40961    1.000
    C114     C        0.21139    0.60960    0.33981    1.000
    C115     C        0.18880    0.56840    0.20622    1.000
    C116     C        0.24885    0.64910    0.30500    1.000
    H81      H        0.28260    0.69080    0.32630    1.000
    C117     C        0.23860    0.62960    0.23890    1.000
    C118     C        0.14910    0.52840    0.24100    1.000
    H82      H        0.11500    0.48860    0.21960    1.000
    C119     C        0.16060    0.54810    0.30730    1.000
    H83      H        0.13430    0.52010    0.33050    1.000
    C120     C        0.17754    0.54760    0.13603    1.000
    C121     C        0.41682    0.89220    0.52770    1.000
    H84      H        0.40840    0.95450    0.55800    1.000
    C122     C        0.47154    0.85490    0.53280    1.000
    H85      H        0.50000    0.89330    0.56520    1.000
    C123     C        0.48435    0.76060    0.48996    1.000
    C124     C        0.44076    0.71010    0.44340    1.000
    H86      H        0.44750    0.64500    0.41320    1.000
    C125     C        0.38789    0.75440    0.44120    1.000
    H87      H        0.35870    0.71900    0.40880    1.000
    C126     C        0.54244    0.72240    0.49390    1.000
    H88      H        0.57020    0.76440    0.52590    1.000
    C127     C        0.55818    0.63250    0.45520    1.000
    H89      H        0.53000    0.59030    0.42380    1.000
    C128     C        0.61556    0.59320    0.45700    1.000
    C129     C        0.62636    0.49710    0.41410    1.000
    H90      H        0.59670    0.45830    0.38330    1.000
    C130     C        0.68003    0.45770    0.41588    1.000
    H91      H        0.68660    0.39520    0.38460    1.000
    C131     C        0.71321    0.59790    0.50159    1.000
    H92      H        0.74350    0.63270    0.53270    1.000
    C132     C        0.66101    0.64600    0.50127    1.000
    H93      H        0.65590    0.71440    0.53080    1.000
    Cl18     Cl       0.26540    0.75070    0.19040    1.000
    Cl19     Cl       0.10830    0.37790    0.20640    1.000
    Cl20     Cl       0.17400    0.34390    0.35190    1.000
    C133     C        0.24179    0.68510    0.30205    1.000
    H94      H        0.26960    0.74890    0.32140    1.000
    C134     C        0.22987    0.66360    0.23617    1.000
    C135     C        0.15894    0.49540    0.24399    1.000
    H95      H        0.13100    0.43200    0.22460    1.000
    C136     C        0.17021    0.51590    0.31001    1.000
    H96      H        0.14980    0.46590    0.33480    1.000
    H97      H        0.24980    0.71410    0.21110    1.000
    C137     C        0.22180    0.71260    0.29970    1.000
    H98      H        0.23620    0.79830    0.31740    1.000
    C138     C        0.21150    0.69420    0.23340    1.000
    H99      H        0.21990    0.76590    0.20710    1.000
    C139     C        0.17830    0.46120    0.24650    1.000
    H100     H        0.16440    0.37510    0.22890    1.000
    C140     C        0.18860    0.48220    0.31250    1.000
    Cu6      Cu       0.79787    0.41537    0.46988    1.000
    Cl21     Cl       0.78590    0.18150    0.19850    1.000
    O21      O        0.76464    0.20010    0.43465    1.000
    O22      O        0.68999    0.07520    0.43814    1.000
    O23      O        0.70609    0.94910    0.11990    1.000
    O24      O        0.64260    0.11770    0.10059    1.000
    N11      N        0.87543    0.34460    0.48226    1.000
    N12      N        0.22330    0.00370    0.45981    1.000
    C141     C        0.72309    0.13080    0.40961    1.000
    C142     C        0.71139    0.10960    0.33981    1.000
    C143     C        0.68880    0.06840    0.20622    1.000
    C144     C        0.74885    0.14910    0.30500    1.000
    H101     H        0.78260    0.19080    0.32630    1.000
    C145     C        0.73860    0.12960    0.23890    1.000
    C146     C        0.64910    0.02840    0.24100    1.000
    H102     H        0.61500    0.98860    0.21960    1.000
    C147     C        0.66060    0.04810    0.30730    1.000
    H103     H        0.63430    0.02010    0.33050    1.000
    C148     C        0.67754    0.04760    0.13603    1.000
    C149     C        0.91682    0.39220    0.52770    1.000
    H104     H        0.90840    0.45450    0.55800    1.000
    C150     C        0.97154    0.35490    0.53280    1.000
    H105     H        0.00000    0.39330    0.56520    1.000
    C151     C        0.98435    0.26060    0.48996    1.000
    C152     C        0.94076    0.21010    0.44340    1.000
    H106     H        0.94750    0.14500    0.41320    1.000
    C153     C        0.88789    0.25440    0.44120    1.000
    H107     H        0.85870    0.21900    0.40880    1.000
    C154     C        0.04244    0.22240    0.49390    1.000
    H108     H        0.07020    0.26440    0.52590    1.000
    C155     C        0.05818    0.13250    0.45520    1.000
    H109     H        0.03000    0.09030    0.42380    1.000
    C156     C        0.11556    0.09320    0.45700    1.000
    C157     C        0.12636    0.99710    0.41410    1.000
    H110     H        0.09670    0.95830    0.38330    1.000
    C158     C        0.18003    0.95770    0.41588    1.000
    H111     H        0.18660    0.89520    0.38460    1.000
    C159     C        0.21321    0.09790    0.50159    1.000
    H112     H        0.24350    0.13270    0.53270    1.000
    C160     C        0.16101    0.14600    0.50127    1.000
    H113     H        0.15590    0.21440    0.53080    1.000
    Cl22     Cl       0.76540    0.25070    0.19040    1.000
    Cl23     Cl       0.60830    0.87790    0.20640    1.000
    Cl24     Cl       0.67400    0.84390    0.35190    1.000
    C161     C        0.74179    0.18510    0.30205    1.000
    H114     H        0.76960    0.24890    0.32140    1.000
    C162     C        0.72987    0.16360    0.23617    1.000
    C163     C        0.65894    0.99540    0.24399    1.000
    H115     H        0.63100    0.93200    0.22460    1.000
    C164     C        0.67021    0.01590    0.31001    1.000
    H116     H        0.64980    0.96590    0.33480    1.000
    H117     H        0.74980    0.21410    0.21110    1.000
    C165     C        0.72180    0.21260    0.29970    1.000
    H118     H        0.73620    0.29830    0.31740    1.000
    C166     C        0.71150    0.19420    0.23340    1.000
    H119     H        0.71990    0.26590    0.20710    1.000
    C167     C        0.67830    0.96120    0.24650    1.000
    H120     H        0.66440    0.87510    0.22890    1.000
    C168     C        0.68860    0.98220    0.31250    1.000
    Cu7      Cu       0.70213    0.91537    0.03012    1.000
    Cl25     Cl       0.71410    0.68150    0.30150    1.000
    O25      O        0.73536    0.70010    0.06535    1.000
    O26      O        0.81001    0.57520    0.06186    1.000
    O27      O        0.79391    0.44910    0.38010    1.000
    O28      O        0.85740    0.61770    0.39941    1.000
    N13      N        0.62457    0.84460    0.01774    1.000
    N14      N        0.27670    0.50370    0.04019    1.000
    C169     C        0.77691    0.63080    0.09039    1.000
    C170     C        0.78861    0.60960    0.16019    1.000
    C171     C        0.81120    0.56840    0.29378    1.000
    C172     C        0.75115    0.64910    0.19500    1.000
    H121     H        0.71740    0.69080    0.17370    1.000
    C173     C        0.76140    0.62960    0.26110    1.000
    C174     C        0.85090    0.52840    0.25900    1.000
    H122     H        0.88500    0.48860    0.28040    1.000
    C175     C        0.83940    0.54810    0.19270    1.000
    H123     H        0.86570    0.52010    0.16950    1.000
    C176     C        0.82246    0.54760    0.36397    1.000
    C177     C        0.58318    0.89220    0.97230    1.000
    H124     H        0.59160    0.95450    0.94200    1.000
    C178     C        0.52846    0.85490    0.96720    1.000
    H125     H        0.50000    0.89330    0.93480    1.000
    C179     C        0.51565    0.76060    0.01004    1.000
    C180     C        0.55924    0.71010    0.05660    1.000
    H126     H        0.55250    0.64500    0.08680    1.000
    C181     C        0.61211    0.75440    0.05880    1.000
    H127     H        0.64130    0.71900    0.09120    1.000
    C182     C        0.45756    0.72240    0.00610    1.000
    H128     H        0.42980    0.76440    0.97410    1.000
    C183     C        0.44182    0.63250    0.04480    1.000
    H129     H        0.47000    0.59030    0.07620    1.000
    C184     C        0.38444    0.59320    0.04300    1.000
    C185     C        0.37364    0.49710    0.08590    1.000
    H130     H        0.40330    0.45830    0.11670    1.000
    C186     C        0.31997    0.45770    0.08412    1.000
    H131     H        0.31340    0.39520    0.11540    1.000
    C187     C        0.28679    0.59790    0.99841    1.000
    H132     H        0.25650    0.63270    0.96730    1.000
    C188     C        0.33899    0.64600    0.99873    1.000
    H133     H        0.34410    0.71440    0.96920    1.000
    Cl26     Cl       0.73460    0.75070    0.30960    1.000
    Cl27     Cl       0.89170    0.37790    0.29360    1.000
    Cl28     Cl       0.82600    0.34390    0.14810    1.000
    C189     C        0.75821    0.68510    0.19795    1.000
    H134     H        0.73040    0.74890    0.17860    1.000
    C190     C        0.77013    0.66360    0.26383    1.000
    C191     C        0.84106    0.49540    0.25601    1.000
    H135     H        0.86900    0.43200    0.27540    1.000
    C192     C        0.82979    0.51590    0.18999    1.000
    H136     H        0.85020    0.46590    0.16520    1.000
    H137     H        0.75020    0.71410    0.28890    1.000
    C193     C        0.77820    0.71260    0.20030    1.000
    H138     H        0.76380    0.79830    0.18260    1.000
    C194     C        0.78850    0.69420    0.26660    1.000
    H139     H        0.78010    0.76590    0.29290    1.000
    C195     C        0.82170    0.46120    0.25350    1.000
    H140     H        0.83560    0.37510    0.27110    1.000
    C196     C        0.81140    0.48220    0.18750    1.000
    Cu8      Cu       0.20213    0.41537    0.03012    1.000
    Cl29     Cl       0.21410    0.18150    0.30150    1.000
    O29      O        0.23536    0.20010    0.06535    1.000
    O30      O        0.31001    0.07520    0.06186    1.000
    O31      O        0.29391    0.94910    0.38010    1.000
    O32      O        0.35740    0.11770    0.39941    1.000
    N15      N        0.12457    0.34460    0.01774    1.000
    N16      N        0.77670    0.00370    0.04019    1.000
    C197     C        0.27691    0.13080    0.09039    1.000
    C198     C        0.28861    0.10960    0.16019    1.000
    C199     C        0.31120    0.06840    0.29378    1.000
    C200     C        0.25115    0.14910    0.19500    1.000
    H141     H        0.21740    0.19080    0.17370    1.000
    C201     C        0.26140    0.12960    0.26110    1.000
    C202     C        0.35090    0.02840    0.25900    1.000
    H142     H        0.38500    0.98860    0.28040    1.000
    C203     C        0.33940    0.04810    0.19270    1.000
    H143     H        0.36570    0.02010    0.16950    1.000
    C204     C        0.32246    0.04760    0.36397    1.000
    C205     C        0.08318    0.39220    0.97230    1.000
    H144     H        0.09160    0.45450    0.94200    1.000
    C206     C        0.02846    0.35490    0.96720    1.000
    H145     H        0.00000    0.39330    0.93480    1.000
    C207     C        0.01565    0.26060    0.01004    1.000
    C208     C        0.05924    0.21010    0.05660    1.000
    H146     H        0.05250    0.14500    0.08680    1.000
    C209     C        0.11211    0.25440    0.05880    1.000
    H147     H        0.14130    0.21900    0.09120    1.000
    C210     C        0.95756    0.22240    0.00610    1.000
    H148     H        0.92980    0.26440    0.97410    1.000
    C211     C        0.94182    0.13250    0.04480    1.000
    H149     H        0.97000    0.09030    0.07620    1.000
    C212     C        0.88444    0.09320    0.04300    1.000
    C213     C        0.87364    0.99710    0.08590    1.000
    H150     H        0.90330    0.95830    0.11670    1.000
    C214     C        0.81997    0.95770    0.08412    1.000
    H151     H        0.81340    0.89520    0.11540    1.000
    C215     C        0.78679    0.09790    0.99841    1.000
    H152     H        0.75650    0.13270    0.96730    1.000
    C216     C        0.83899    0.14600    0.99873    1.000
    H153     H        0.84410    0.21440    0.96920    1.000
    Cl30     Cl       0.23460    0.25070    0.30960    1.000
    Cl31     Cl       0.39170    0.87790    0.29360    1.000
    Cl32     Cl       0.32600    0.84390    0.14810    1.000
    C217     C        0.25821    0.18510    0.19795    1.000
    H154     H        0.23040    0.24890    0.17860    1.000
    C218     C        0.27013    0.16360    0.26383    1.000
    C219     C        0.34106    0.99540    0.25601    1.000
    H155     H        0.36900    0.93200    0.27540    1.000
    C220     C        0.32979    0.01590    0.18999    1.000
    H156     H        0.35020    0.96590    0.16520    1.000
    H157     H        0.25020    0.21410    0.28890    1.000
    C221     C        0.27820    0.21260    0.20030    1.000
    H158     H        0.26380    0.29830    0.18260    1.000
    C222     C        0.28850    0.19420    0.26660    1.000
    H159     H        0.28010    0.26590    0.29290    1.000
    C223     C        0.32170    0.96120    0.25350    1.000
    H160     H        0.33560    0.87510    0.27110    1.000
    C224     C        0.31140    0.98220    0.18750    1.000
