# CIF file generated by openbabel 3.1.0, see https://openbabel.org
data_I
_chemical_name_common 'image0'
_cell_length_a 13.905
_cell_length_b 13.905
_cell_length_c 18.4663
_cell_angle_alpha 90
_cell_angle_beta 90
_cell_angle_gamma 120
_space_group_name_H-M_alt 'P 1'
_space_group_name_Hall 'P 1'
loop_
    _symmetry_equiv_pos_as_xyz
    x,y,z
loop_
    _atom_site_label
    _atom_site_type_symbol
    _atom_site_fract_x
    _atom_site_fract_y
    _atom_site_fract_z
    _atom_site_occupancy
    O1       O        0.86320    0.35150    0.33547    1.000
    C1       C        0.97290    0.57130    0.46680    1.000
    H1       H        0.95490    0.62040    0.44480    1.000
    O2       O        0.64850    0.51170    0.33547    1.000
    C2       C        0.42870    0.40160    0.46680    1.000
    H2       H        0.37960    0.33450    0.44480    1.000
    O3       O        0.48830    0.13680    0.33547    1.000
    C3       C        0.59840    0.02710    0.46680    1.000
    H3       H        0.66550    0.04510    0.44480    1.000
    O4       O        0.13680    0.64850    0.83547    1.000
    C4       C        0.02710    0.42870    0.96680    1.000
    H4       H        0.04510    0.37960    0.94480    1.000
    O5       O        0.35150    0.48830    0.83547    1.000
    C5       C        0.57130    0.59840    0.96680    1.000
    H5       H        0.62040    0.66550    0.94480    1.000
    O6       O        0.51170    0.86320    0.83547    1.000
    C6       C        0.40160    0.97290    0.96680    1.000
    H6       H        0.33450    0.95490    0.94480    1.000
    O7       O        0.35150    0.86320    0.66453    1.000
    C7       C        0.57130    0.97290    0.53320    1.000
    H7       H        0.62040    0.95490    0.55520    1.000
    O8       O        0.51170    0.64850    0.66453    1.000
    C8       C        0.40160    0.42870    0.53320    1.000
    H8       H        0.33450    0.37960    0.55520    1.000
    O9       O        0.13680    0.48830    0.66453    1.000
    C9       C        0.02710    0.59840    0.53320    1.000
    H9       H        0.04510    0.66550    0.55520    1.000
    O10      O        0.64850    0.13680    0.16453    1.000
    C10      C        0.42870    0.02710    0.03320    1.000
    H10      H        0.37960    0.04510    0.05520    1.000
    O11      O        0.48830    0.35150    0.16453    1.000
    C11      C        0.59840    0.57130    0.03320    1.000
    H11      H        0.66550    0.62040    0.05520    1.000
    O12      O        0.86320    0.51170    0.16453    1.000
    C12      C        0.97290    0.40160    0.03320    1.000
    H12      H        0.95490    0.33450    0.05520    1.000
    O13      O        0.13680    0.64850    0.66453    1.000
    C13      C        0.02710    0.42870    0.53320    1.000
    H13      H        0.04510    0.37960    0.55520    1.000
    O14      O        0.35150    0.48830    0.66453    1.000
    C14      C        0.57130    0.59840    0.53320    1.000
    H14      H        0.62040    0.66550    0.55520    1.000
    O15      O        0.51170    0.86320    0.66453    1.000
    C15      C        0.40160    0.97290    0.53320    1.000
    H15      H        0.33450    0.95490    0.55520    1.000
    O16      O        0.86320    0.35150    0.16453    1.000
    C16      C        0.97290    0.57130    0.03320    1.000
    H16      H        0.95490    0.62040    0.05520    1.000
    O17      O        0.64850    0.51170    0.16453    1.000
    C17      C        0.42870    0.40160    0.03320    1.000
    H17      H        0.37960    0.33450    0.05520    1.000
    O18      O        0.48830    0.13680    0.16453    1.000
    C18      C        0.59840    0.02710    0.03320    1.000
    H18      H        0.66550    0.04510    0.05520    1.000
    O19      O        0.64850    0.13680    0.33547    1.000
    C19      C        0.42870    0.02710    0.46680    1.000
    H19      H        0.37960    0.04510    0.44480    1.000
    O20      O        0.48830    0.35150    0.33547    1.000
    C20      C        0.59840    0.57130    0.46680    1.000
    H20      H        0.66550    0.62040    0.44480    1.000
    O21      O        0.86320    0.51170    0.33547    1.000
    C21      C        0.97290    0.40160    0.46680    1.000
    H21      H        0.95490    0.33450    0.44480    1.000
    O22      O        0.35150    0.86320    0.83547    1.000
    C22      C        0.57130    0.97290    0.96680    1.000
    H22      H        0.62040    0.95490    0.94480    1.000
    O23      O        0.51170    0.64850    0.83547    1.000
    C23      C        0.40160    0.42870    0.96680    1.000
    H23      H        0.33450    0.37960    0.94480    1.000
    O24      O        0.13680    0.48830    0.83547    1.000
    C24      C        0.02710    0.59840    0.96680    1.000
    H24      H        0.04510    0.66550    0.94480    1.000
    In1      In       0.75095    0.24905    0.25000    1.000
    N1       N        0.84070    0.15930    0.25000    1.000
    In2      In       0.75095    0.50190    0.25000    1.000
    N2       N        0.84070    0.68140    0.25000    1.000
    In3      In       0.49810    0.24905    0.25000    1.000
    N3       N        0.31860    0.15930    0.25000    1.000
    In4      In       0.24905    0.75095    0.75000    1.000
    N4       N        0.15930    0.84070    0.75000    1.000
    In5      In       0.24905    0.49810    0.75000    1.000
    N5       N        0.15930    0.31860    0.75000    1.000
    In6      In       0.50190    0.75095    0.75000    1.000
    N6       N        0.68140    0.84070    0.75000    1.000
    O25      O        0.66667    0.33333    0.25000    1.000
    O26      O        0.33333    0.66667    0.75000    1.000
    C25      C        0.88610    0.44305    0.36220    1.000
    C26      C        0.94580    0.47290    0.43340    1.000
    C27      C        0.55695    0.44305    0.36220    1.000
    C28      C        0.52710    0.47290    0.43340    1.000
    C29      C        0.55695    0.11390    0.36220    1.000
    C30      C        0.52710    0.05420    0.43340    1.000
    C31      C        0.11390    0.55695    0.86220    1.000
    C32      C        0.05420    0.52710    0.93340    1.000
    C33      C        0.44305    0.55695    0.86220    1.000
    C34      C        0.47290    0.52710    0.93340    1.000
    C35      C        0.44305    0.88610    0.86220    1.000
    C36      C        0.47290    0.94580    0.93340    1.000
    C37      C        0.44305    0.88610    0.63780    1.000
    C38      C        0.47290    0.94580    0.56660    1.000
    C39      C        0.44305    0.55695    0.63780    1.000
    C40      C        0.47290    0.52710    0.56660    1.000
    C41      C        0.11390    0.55695    0.63780    1.000
    C42      C        0.05420    0.52710    0.56660    1.000
    C43      C        0.55695    0.11390    0.13780    1.000
    C44      C        0.52710    0.05420    0.06660    1.000
    C45      C        0.55695    0.44305    0.13780    1.000
    C46      C        0.52710    0.47290    0.06660    1.000
    C47      C        0.88610    0.44305    0.13780    1.000
    C48      C        0.94580    0.47290    0.06660    1.000
    C49      C        0.87490    0.12510    0.30680    1.000
    H25      H        0.86300    0.13700    0.35470    1.000
    N7       N        0.92751    0.07249    0.28740    1.000
    C50      C        0.87490    0.74980    0.30680    1.000
    H26      H        0.86300    0.72600    0.35470    1.000
    N8       N        0.92751    0.85502    0.28740    1.000
    C51      C        0.25020    0.12510    0.30680    1.000
    H27      H        0.27400    0.13700    0.35470    1.000
    N9       N        0.14498    0.07249    0.28740    1.000
    C52      C        0.12510    0.87490    0.80680    1.000
    H28      H        0.13700    0.86300    0.85470    1.000
    N10      N        0.07249    0.92751    0.78740    1.000
    C53      C        0.12510    0.25020    0.80680    1.000
    H29      H        0.13700    0.27400    0.85470    1.000
    N11      N        0.07249    0.14498    0.78740    1.000
    C54      C        0.74980    0.87490    0.80680    1.000
    H30      H        0.72600    0.86300    0.85470    1.000
    N12      N        0.85502    0.92751    0.78740    1.000
    C55      C        0.12510    0.87490    0.69320    1.000
    H31      H        0.13700    0.86300    0.64530    1.000
    N13      N        0.07249    0.92751    0.71260    1.000
    C56      C        0.74980    0.87490    0.69320    1.000
    H32      H        0.72600    0.86300    0.64530    1.000
    N14      N        0.85502    0.92751    0.71260    1.000
    C57      C        0.12510    0.25020    0.69320    1.000
    H33      H        0.13700    0.27400    0.64530    1.000
    N15      N        0.07249    0.14498    0.71260    1.000
    C58      C        0.87490    0.12510    0.19320    1.000
    H34      H        0.86300    0.13700    0.14530    1.000
    N16      N        0.92751    0.07249    0.21260    1.000
    C59      C        0.25020    0.12510    0.19320    1.000
    H35      H        0.27400    0.13700    0.14530    1.000
    N17      N        0.14498    0.07249    0.21260    1.000
    C60      C        0.87490    0.74980    0.19320    1.000
    H36      H        0.86300    0.72600    0.14530    1.000
    N18      N        0.92751    0.85502    0.21260    1.000
    Co1      Co       0.00000    0.00000    0.35738    1.000
    Co2      Co       0.00000    0.00000    0.85738    1.000
    Co3      Co       0.00000    0.00000    0.64262    1.000
    Co4      Co       0.00000    0.00000    0.14262    1.000
