# CIF file generated by openbabel 3.1.0, see https://openbabel.org
data_I
_chemical_name_common 'OJAKUG_clean'
_cell_length_a 8.9532
_cell_length_b 15.1537
_cell_length_c 16.466
_cell_angle_alpha 90
_cell_angle_beta 90
_cell_angle_gamma 103.587
_space_group_name_H-M_alt 'P 1'
_space_group_name_Hall 'P 1'
loop_
    _symmetry_equiv_pos_as_xyz
    x,y,z
loop_
    _atom_site_label
    _atom_site_type_symbol
    _atom_site_fract_x
    _atom_site_fract_y
    _atom_site_fract_z
    _atom_site_occupancy
    Eu1      Eu       0.43638    0.04332    0.89354    1.000
    Eu2      Eu       0.06362    0.95668    0.39354    1.000
    Eu3      Eu       0.56362    0.95668    0.10646    1.000
    Eu4      Eu       0.93638    0.04332    0.60646    1.000
    H1       H        0.99360    0.86100    0.98700    1.000
    H2       H        0.96890    0.91220    0.06660    1.000
    H3       H        0.14810    0.78180    0.94130    1.000
    H4       H        0.24120    0.66060    0.89600    1.000
    H5       H        0.13060    0.53140    0.10560    1.000
    H6       H        0.03420    0.64970    0.15160    1.000
    H7       H        0.15090    0.42180    0.04380    1.000
    H8       H        0.65360    0.36020    0.75810    1.000
    H9       H        0.57730    0.49000    0.79060    1.000
    H10      H        0.44580    0.26870    0.05760    1.000
    H11      H        0.28130    0.20310    0.06010    1.000
    H12      H        0.65000    0.23520    0.71860    1.000
    H13      H        0.77890    0.22480    0.78000    1.000
    H14      H        0.50640    0.13900    0.48700    1.000
    H15      H        0.53110    0.08780    0.56660    1.000
    H16      H        0.35190    0.21820    0.44130    1.000
    H17      H        0.25880    0.33940    0.39600    1.000
    H18      H        0.36940    0.46860    0.60560    1.000
    H19      H        0.46580    0.35030    0.65160    1.000
    H20      H        0.34910    0.57820    0.54380    1.000
    H21      H        0.84640    0.63980    0.25810    1.000
    H22      H        0.92270    0.51000    0.29060    1.000
    H23      H        0.05420    0.73130    0.55760    1.000
    H24      H        0.21870    0.79690    0.56010    1.000
    H25      H        0.85000    0.76480    0.21860    1.000
    H26      H        0.72110    0.77520    0.28000    1.000
    H27      H        0.00640    0.13900    0.01300    1.000
    H28      H        0.03110    0.08780    0.93340    1.000
    H29      H        0.85190    0.21820    0.05870    1.000
    H30      H        0.75880    0.33940    0.10400    1.000
    H31      H        0.86940    0.46860    0.89440    1.000
    H32      H        0.96580    0.35030    0.84840    1.000
    H33      H        0.84910    0.57820    0.95620    1.000
    H34      H        0.34640    0.63980    0.24190    1.000
    H35      H        0.42270    0.51000    0.20940    1.000
    H36      H        0.55420    0.73130    0.94240    1.000
    H37      H        0.71870    0.79690    0.93990    1.000
    H38      H        0.35000    0.76480    0.28140    1.000
    H39      H        0.22110    0.77520    0.22000    1.000
    H40      H        0.49360    0.86100    0.51300    1.000
    H41      H        0.46890    0.91220    0.43340    1.000
    H42      H        0.64810    0.78180    0.55870    1.000
    H43      H        0.74120    0.66060    0.60400    1.000
    H44      H        0.63060    0.53140    0.39440    1.000
    H45      H        0.53420    0.64970    0.34840    1.000
    H46      H        0.65090    0.42180    0.45620    1.000
    H47      H        0.15360    0.36020    0.74190    1.000
    H48      H        0.07730    0.49000    0.70940    1.000
    H49      H        0.94580    0.26870    0.44240    1.000
    H50      H        0.78130    0.20310    0.43990    1.000
    H51      H        0.15000    0.23520    0.78140    1.000
    H52      H        0.27890    0.22480    0.72000    1.000
    C1       C        0.19680    0.93540    0.03450    1.000
    C2       C        0.03320    0.87680    0.04120    1.000
    C3       C        0.08260    0.72870    0.05260    1.000
    C4       C        0.14490    0.73200    0.97490    1.000
    C5       C        0.20210    0.65910    0.94850    1.000
    C6       C        0.20350    0.58580    0.99560    1.000
    C7       C        0.13600    0.58200    0.07280    1.000
    C8       C        0.07770    0.65290    0.10010    1.000
    C9       C        0.38080    0.51850    0.90370    1.000
    C10      C        0.26860    0.50850    0.96840    1.000
    C11      C        0.22440    0.42720    0.00310    1.000
    C12      C        0.37880    0.35710    0.92550    1.000
    C13      C        0.42950    0.27810    0.90900    1.000
    C14      C        0.53420    0.28290    0.84510    1.000
    C15      C        0.58560    0.35990    0.80090    1.000
    C16      C        0.53770    0.43670    0.81910    1.000
    C17      C        0.42930    0.43550    0.88050    1.000
    C18      C        0.38620    0.20910    0.04170    1.000
    C19      C        0.45260    0.13660    0.08050    1.000
    C20      C        0.67400    0.19900    0.76310    1.000
    C21      C        0.65930    0.10330    0.73520    1.000
    C22      C        0.30320    0.06460    0.53450    1.000
    C23      C        0.46680    0.12320    0.54120    1.000
    C24      C        0.41740    0.27130    0.55260    1.000
    C25      C        0.35510    0.26800    0.47490    1.000
    C26      C        0.29790    0.34090    0.44850    1.000
    C27      C        0.29650    0.41420    0.49560    1.000
    C28      C        0.36400    0.41800    0.57280    1.000
    C29      C        0.42230    0.34710    0.60010    1.000
    C30      C        0.11920    0.48150    0.40370    1.000
    C31      C        0.23140    0.49150    0.46840    1.000
    C32      C        0.27560    0.57280    0.50310    1.000
    C33      C        0.12120    0.64290    0.42550    1.000
    C34      C        0.07050    0.72190    0.40900    1.000
    C35      C        0.96580    0.71710    0.34510    1.000
    C36      C        0.91440    0.64010    0.30090    1.000
    C37      C        0.96230    0.56330    0.31910    1.000
    C38      C        0.07070    0.56450    0.38050    1.000
    C39      C        0.11380    0.79090    0.54170    1.000
    C40      C        0.04740    0.86340    0.58050    1.000
    C41      C        0.82600    0.80100    0.26310    1.000
    C42      C        0.84070    0.89670    0.23520    1.000
    C43      C        0.80320    0.06460    0.96550    1.000
    C44      C        0.96680    0.12320    0.95880    1.000
    C45      C        0.91740    0.27130    0.94740    1.000
    C46      C        0.85510    0.26800    0.02510    1.000
    C47      C        0.79790    0.34090    0.05150    1.000
    C48      C        0.79650    0.41420    0.00440    1.000
    C49      C        0.86400    0.41800    0.92720    1.000
    C50      C        0.92230    0.34710    0.89990    1.000
    C51      C        0.61920    0.48150    0.09630    1.000
    C52      C        0.73140    0.49150    0.03160    1.000
    C53      C        0.77560    0.57280    0.99690    1.000
    C54      C        0.62120    0.64290    0.07450    1.000
    C55      C        0.57050    0.72190    0.09100    1.000
    C56      C        0.46580    0.71710    0.15490    1.000
    C57      C        0.41440    0.64010    0.19910    1.000
    C58      C        0.46230    0.56330    0.18090    1.000
    C59      C        0.57070    0.56450    0.11950    1.000
    C60      C        0.61380    0.79090    0.95830    1.000
    C61      C        0.54740    0.86340    0.91950    1.000
    C62      C        0.32600    0.80100    0.23690    1.000
    C63      C        0.34070    0.89670    0.26480    1.000
    C64      C        0.69680    0.93540    0.46550    1.000
    C65      C        0.53320    0.87680    0.45880    1.000
    C66      C        0.58260    0.72870    0.44740    1.000
    C67      C        0.64490    0.73200    0.52510    1.000
    C68      C        0.70210    0.65910    0.55150    1.000
    C69      C        0.70350    0.58580    0.50440    1.000
    C70      C        0.63600    0.58200    0.42720    1.000
    C71      C        0.57770    0.65290    0.39990    1.000
    C72      C        0.88080    0.51850    0.59630    1.000
    C73      C        0.76860    0.50850    0.53160    1.000
    C74      C        0.72440    0.42720    0.49690    1.000
    C75      C        0.87880    0.35710    0.57450    1.000
    C76      C        0.92950    0.27810    0.59100    1.000
    C77      C        0.03420    0.28290    0.65490    1.000
    C78      C        0.08560    0.35990    0.69910    1.000
    C79      C        0.03770    0.43670    0.68090    1.000
    C80      C        0.92930    0.43550    0.61950    1.000
    C81      C        0.88620    0.20910    0.45830    1.000
    C82      C        0.95260    0.13660    0.41950    1.000
    C83      C        0.17400    0.19900    0.73690    1.000
    C84      C        0.15930    0.10330    0.76480    1.000
    O1       O        0.22010    0.99090    0.97860    1.000
    O2       O        0.29170    0.92390    0.08850    1.000
    O3       O        0.02150    0.79540    0.08650    1.000
    O4       O        0.43690    0.59040    0.86900    1.000
    O5       O        0.27390    0.35130    0.98620    1.000
    O6       O        0.38890    0.19980    0.95210    1.000
    O7       O        0.44880    0.13000    0.15360    1.000
    O8       O        0.50960    0.08510    0.03520    1.000
    O9       O        0.57220    0.20130    0.82920    1.000
    O10      O        0.75300    0.09550    0.68090    1.000
    O11      O        0.55280    0.04200    0.76230    1.000
    O12      O        0.27990    0.00910    0.47860    1.000
    O13      O        0.20830    0.07610    0.58850    1.000
    O14      O        0.47850    0.20460    0.58650    1.000
    O15      O        0.06310    0.40960    0.36900    1.000
    O16      O        0.22610    0.64870    0.48620    1.000
    O17      O        0.11110    0.80020    0.45210    1.000
    O18      O        0.05120    0.87000    0.65360    1.000
    O19      O        0.99040    0.91490    0.53520    1.000
    O20      O        0.92780    0.79870    0.32920    1.000
    O21      O        0.74700    0.90450    0.18090    1.000
    O22      O        0.94720    0.95800    0.26230    1.000
    O23      O        0.77990    0.00910    0.02140    1.000
    O24      O        0.70830    0.07610    0.91150    1.000
    O25      O        0.97850    0.20460    0.91350    1.000
    O26      O        0.56310    0.40960    0.13100    1.000
    O27      O        0.72610    0.64870    0.01380    1.000
    O28      O        0.61110    0.80020    0.04790    1.000
    O29      O        0.55120    0.87000    0.84640    1.000
    O30      O        0.49040    0.91490    0.96480    1.000
    O31      O        0.42780    0.79870    0.17080    1.000
    O32      O        0.24700    0.90450    0.31910    1.000
    O33      O        0.44720    0.95800    0.23770    1.000
    O34      O        0.72010    0.99090    0.52140    1.000
    O35      O        0.79170    0.92390    0.41150    1.000
    O36      O        0.52150    0.79540    0.41350    1.000
    O37      O        0.93690    0.59040    0.63100    1.000
    O38      O        0.77390    0.35130    0.51380    1.000
    O39      O        0.88890    0.19980    0.54790    1.000
    O40      O        0.94880    0.13000    0.34640    1.000
    O41      O        0.00960    0.08510    0.46480    1.000
    O42      O        0.07220    0.20130    0.67080    1.000
    O43      O        0.25300    0.09550    0.81910    1.000
    O44      O        0.05280    0.04200    0.73770    1.000
