# CIF file generated by openbabel 3.1.0, see https://openbabel.org
data_I
_chemical_name_common 'image0'
_cell_length_a 18.659
_cell_length_b 11.251
_cell_length_c 10.015
_cell_angle_alpha 90
_cell_angle_beta 114.12
_cell_angle_gamma 90
_space_group_name_H-M_alt 'P 1'
_space_group_name_Hall 'P 1'
loop_
    _symmetry_equiv_pos_as_xyz
    x,y,z
loop_
    _atom_site_label
    _atom_site_type_symbol
    _atom_site_fract_x
    _atom_site_fract_y
    _atom_site_fract_z
    _atom_site_occupancy
    O1       O        0.10095    0.41400    0.19997    1.000
    O2       O        0.09261    0.47046    0.40521    1.000
    O3       O        0.19015    0.24307    0.19885    1.000
    C1       C        0.12253    0.41083    0.33738    1.000
    C2       C        0.18939    0.32822    0.42030    1.000
    C3       C        0.21849    0.24807    0.34712    1.000
    C4       C        0.22147    0.32906    0.57221    1.000
    H1       H        0.20230    0.38230    0.62070    1.000
    H2       H        0.15880    0.30000    0.16800    1.000
    O4       O        0.60095    0.91400    0.19997    1.000
    O5       O        0.59261    0.97046    0.40521    1.000
    O6       O        0.69015    0.74307    0.19885    1.000
    C5       C        0.62253    0.91083    0.33738    1.000
    C6       C        0.68939    0.82822    0.42030    1.000
    C7       C        0.71849    0.74807    0.34712    1.000
    C8       C        0.72147    0.82906    0.57221    1.000
    H3       H        0.70230    0.88230    0.62070    1.000
    H4       H        0.65880    0.80000    0.16800    1.000
    O7       O        0.89905    0.41400    0.30003    1.000
    O8       O        0.90739    0.47046    0.09479    1.000
    O9       O        0.80985    0.24307    0.30115    1.000
    C9       C        0.87747    0.41083    0.16262    1.000
    C10      C        0.81061    0.32822    0.07970    1.000
    C11      C        0.78151    0.24807    0.15288    1.000
    C12      C        0.77853    0.32906    0.92779    1.000
    H5       H        0.79770    0.38230    0.87930    1.000
    H6       H        0.84120    0.30000    0.33200    1.000
    O10      O        0.39905    0.91400    0.30003    1.000
    O11      O        0.40739    0.97046    0.09479    1.000
    O12      O        0.30985    0.74307    0.30115    1.000
    C13      C        0.37747    0.91083    0.16262    1.000
    C14      C        0.31061    0.82822    0.07970    1.000
    C15      C        0.28151    0.74807    0.15288    1.000
    C16      C        0.27853    0.82906    0.92779    1.000
    H7       H        0.29770    0.88230    0.87930    1.000
    H8       H        0.34120    0.80000    0.33200    1.000
    O13      O        0.89905    0.58600    0.80003    1.000
    O14      O        0.90739    0.52954    0.59479    1.000
    O15      O        0.80985    0.75693    0.80115    1.000
    C17      C        0.87747    0.58917    0.66262    1.000
    C18      C        0.81061    0.67178    0.57970    1.000
    C19      C        0.78151    0.75193    0.65288    1.000
    C20      C        0.77853    0.67094    0.42779    1.000
    H9       H        0.79770    0.61770    0.37930    1.000
    H10      H        0.84120    0.70000    0.83200    1.000
    O16      O        0.39905    0.08600    0.80003    1.000
    O17      O        0.40739    0.02954    0.59479    1.000
    O18      O        0.30985    0.25693    0.80115    1.000
    C21      C        0.37747    0.08917    0.66262    1.000
    C22      C        0.31061    0.17178    0.57970    1.000
    C23      C        0.28151    0.25193    0.65288    1.000
    C24      C        0.27853    0.17094    0.42779    1.000
    H11      H        0.29770    0.11770    0.37930    1.000
    H12      H        0.34120    0.20000    0.83200    1.000
    O19      O        0.10095    0.58600    0.69997    1.000
    O20      O        0.09261    0.52954    0.90521    1.000
    O21      O        0.19015    0.75693    0.69885    1.000
    C25      C        0.12253    0.58917    0.83738    1.000
    C26      C        0.18939    0.67178    0.92030    1.000
    C27      C        0.21849    0.75193    0.84712    1.000
    C28      C        0.22147    0.67094    0.07221    1.000
    H13      H        0.20230    0.61770    0.12070    1.000
    H14      H        0.15880    0.70000    0.66800    1.000
    O22      O        0.60095    0.08600    0.69997    1.000
    O23      O        0.59261    0.02954    0.90521    1.000
    O24      O        0.69015    0.25693    0.69885    1.000
    C29      C        0.62253    0.08917    0.83738    1.000
    C30      C        0.68939    0.17178    0.92030    1.000
    C31      C        0.71849    0.25193    0.84712    1.000
    C32      C        0.72147    0.17094    0.07221    1.000
    H15      H        0.70230    0.11770    0.12070    1.000
    H16      H        0.65880    0.20000    0.66800    1.000
    Ca1      Ca       0.00000    0.50000    0.00000    1.000
    Ca2      Ca       0.50000    0.00000    0.00000    1.000
    Ca3      Ca       0.00000    0.50000    0.50000    1.000
    Ca4      Ca       0.50000    0.00000    0.50000    1.000
