# CIF file generated by openbabel 3.1.0, see https://openbabel.org
data_I
_chemical_name_common 'GESDUF_clean'
_cell_length_a 8.1455
_cell_length_b 13.1869
_cell_length_c 19.3665
_cell_angle_alpha 109.905
_cell_angle_beta 99.4392
_cell_angle_gamma 90
_space_group_name_H-M_alt 'P 1'
_space_group_name_Hall 'P 1'
loop_
    _symmetry_equiv_pos_as_xyz
    x,y,z
loop_
    _atom_site_label
    _atom_site_type_symbol
    _atom_site_fract_x
    _atom_site_fract_y
    _atom_site_fract_z
    _atom_site_occupancy
    Co1      Co       0.00000    0.00000    0.00000    1.000
    Co2      Co       0.50000    0.00000    0.00000    1.000
    H1       H        0.04500    0.64370    0.75060    1.000
    H2       H        0.89680    0.54560    0.63600    1.000
    H3       H        0.51370    0.73200    0.67860    1.000
    H4       H        0.66310    0.83130    0.79340    1.000
    H5       H        0.65590    0.43950    0.65440    1.000
    H6       H        0.80890    0.32630    0.69380    1.000
    H7       H        0.65950    0.34160    0.73740    1.000
    H8       H        0.76170    0.23810    0.72580    1.000
    H9       H        0.40860    0.05880    0.40240    1.000
    H10      H        0.32940    0.98820    0.44060    1.000
    H11      H        0.23980    0.08900    0.43100    1.000
    H12      H        0.34400    0.23890    0.42580    1.000
    H13      H        0.45500    0.89310    0.24940    1.000
    H14      H        0.60320    0.90960    0.36400    1.000
    H15      H        0.98630    0.05340    0.32140    1.000
    H16      H        0.83690    0.03790    0.20660    1.000
    H17      H        0.84410    0.78510    0.34560    1.000
    H18      H        0.69110    0.63250    0.30620    1.000
    H19      H        0.84050    0.60420    0.26260    1.000
    H20      H        0.73830    0.51230    0.27420    1.000
    H21      H        0.09140    0.65640    0.59760    1.000
    H22      H        0.17060    0.54760    0.55940    1.000
    H23      H        0.26020    0.65800    0.56900    1.000
    H24      H        0.15600    0.81310    0.57420    1.000
    H25      H        0.95500    0.35630    0.24940    1.000
    H26      H        0.10320    0.45440    0.36400    1.000
    H27      H        0.48630    0.26800    0.32140    1.000
    H28      H        0.33690    0.16870    0.20660    1.000
    H29      H        0.34410    0.56050    0.34560    1.000
    H30      H        0.19110    0.67370    0.30620    1.000
    H31      H        0.34050    0.65840    0.26260    1.000
    H32      H        0.23830    0.76190    0.27420    1.000
    H33      H        0.59140    0.94120    0.59760    1.000
    H34      H        0.67060    0.01180    0.55940    1.000
    H35      H        0.76020    0.91100    0.56900    1.000
    H36      H        0.65600    0.76110    0.57420    1.000
    H37      H        0.54500    0.10690    0.75060    1.000
    H38      H        0.39680    0.09040    0.63600    1.000
    H39      H        0.01370    0.94660    0.67860    1.000
    H40      H        0.16310    0.96210    0.79340    1.000
    H41      H        0.15590    0.21490    0.65440    1.000
    H42      H        0.30890    0.36750    0.69380    1.000
    H43      H        0.15950    0.39580    0.73740    1.000
    H44      H        0.26170    0.48770    0.72580    1.000
    H45      H        0.90860    0.34360    0.40240    1.000
    H46      H        0.82940    0.45240    0.44060    1.000
    H47      H        0.73980    0.34200    0.43100    1.000
    H48      H        0.84400    0.18690    0.42580    1.000
    C1       C        0.96610    0.80846    0.86012    1.000
    C2       C        0.86920    0.74657    0.78494    1.000
    C3       C        0.93730    0.66143    0.73646    1.000
    C4       C        0.84850    0.60274    0.66768    1.000
    C5       C        0.68920    0.62712    0.64484    1.000
    C6       C        0.62100    0.71386    0.69312    1.000
    C7       C        0.71010    0.77300    0.76200    1.000
    C8       C        0.59300    0.56193    0.57046    1.000
    C9       C        0.54840    0.45294    0.55488    1.000
    C10      C        0.59720    0.39967    0.60734    1.000
    C11      C        0.56100    0.29365    0.59090    1.000
    C12      C        0.71850    0.28986    0.70372    1.000
    C13      C        0.46460    0.23135    0.52050    1.000
    C14      C        0.34600    0.06026    0.44052    1.000
    C15      C        0.41110    0.27926    0.47052    1.000
    C16      C        0.45400    0.39041    0.48382    1.000
    C17      C        0.53390    0.94834    0.13988    1.000
    C18      C        0.63080    0.96163    0.21506    1.000
    C19      C        0.56270    0.92497    0.26354    1.000
    C20      C        0.65150    0.93506    0.33232    1.000
    C21      C        0.81080    0.98228    0.35516    1.000
    C22      C        0.87900    0.02074    0.30688    1.000
    C23      C        0.78990    0.01100    0.23800    1.000
    C24      C        0.90700    0.99147    0.42954    1.000
    C25      C        0.95160    0.89806    0.44512    1.000
    C26      C        0.90280    0.79233    0.39266    1.000
    C27      C        0.93900    0.70275    0.40910    1.000
    C28      C        0.78150    0.58614    0.29628    1.000
    C29      C        0.03540    0.71085    0.47950    1.000
    C30      C        0.15400    0.61974    0.55948    1.000
    C31      C        0.08890    0.80874    0.52948    1.000
    C32      C        0.04600    0.90659    0.51618    1.000
    C33      C        0.03390    0.19154    0.13988    1.000
    C34      C        0.13080    0.25343    0.21506    1.000
    C35      C        0.06270    0.33857    0.26354    1.000
    C36      C        0.15150    0.39726    0.33232    1.000
    C37      C        0.31080    0.37288    0.35516    1.000
    C38      C        0.37900    0.28614    0.30688    1.000
    C39      C        0.28990    0.22700    0.23800    1.000
    C40      C        0.40700    0.43807    0.42954    1.000
    C41      C        0.45160    0.54706    0.44512    1.000
    C42      C        0.40280    0.60033    0.39266    1.000
    C43      C        0.43900    0.70635    0.40910    1.000
    C44      C        0.28150    0.71014    0.29628    1.000
    C45      C        0.53540    0.76865    0.47950    1.000
    C46      C        0.65400    0.93974    0.55948    1.000
    C47      C        0.58890    0.72074    0.52948    1.000
    C48      C        0.54600    0.60959    0.51618    1.000
    C49      C        0.46610    0.05166    0.86012    1.000
    C50      C        0.36920    0.03837    0.78494    1.000
    C51      C        0.43730    0.07503    0.73646    1.000
    C52      C        0.34850    0.06494    0.66768    1.000
    C53      C        0.18920    0.01772    0.64484    1.000
    C54      C        0.12100    0.97926    0.69312    1.000
    C55      C        0.21010    0.98900    0.76200    1.000
    C56      C        0.09300    0.00853    0.57046    1.000
    C57      C        0.04840    0.10194    0.55488    1.000
    C58      C        0.09720    0.20767    0.60734    1.000
    C59      C        0.06100    0.29725    0.59090    1.000
    C60      C        0.21850    0.41386    0.70372    1.000
    C61      C        0.96460    0.28915    0.52050    1.000
    C62      C        0.84600    0.38026    0.44052    1.000
    C63      C        0.91110    0.19126    0.47052    1.000
    C64      C        0.95400    0.09341    0.48382    1.000
    O1       O        0.89240    0.87955    0.90484    1.000
    O2       O        0.11270    0.78798    0.87576    1.000
    O3       O        0.60900    0.23628    0.63666    1.000
    O4       O        0.43520    0.12646    0.51108    1.000
    O5       O        0.60760    0.97471    0.09516    1.000
    O6       O        0.38730    0.91222    0.12424    1.000
    O7       O        0.89100    0.59962    0.36334    1.000
    O8       O        0.06480    0.61538    0.48892    1.000
    O9       O        0.10760    0.12045    0.09516    1.000
    O10      O        0.88730    0.21202    0.12424    1.000
    O11      O        0.39100    0.76372    0.36334    1.000
    O12      O        0.56480    0.87354    0.48892    1.000
    O13      O        0.39240    0.02529    0.90484    1.000
    O14      O        0.61270    0.08778    0.87576    1.000
    O15      O        0.10900    0.40038    0.63666    1.000
    O16      O        0.93520    0.38462    0.51108    1.000
    O17      O        0.75000    0.06660    0.00000    1.000
    O18      O        0.25000    0.93340    0.00000    1.000
