# CIF file generated by openbabel 3.1.0, see https://openbabel.org
data_I
_chemical_name_common 'ja4012707_si_004_clean'
_cell_length_a 8.2169
_cell_length_b 8.2169
_cell_length_c 13.1705
_cell_angle_alpha 90
_cell_angle_beta 90
_cell_angle_gamma 120
_space_group_name_H-M_alt 'P 1'
_space_group_name_Hall 'P 1'
loop_
    _symmetry_equiv_pos_as_xyz
    x,y,z
loop_
    _atom_site_label
    _atom_site_type_symbol
    _atom_site_fract_x
    _atom_site_fract_y
    _atom_site_fract_z
    _atom_site_occupancy
    Zn1      Zn       0.66667    0.33334    0.41697    1.000
    Zn2      Zn       0.33333    0.66666    0.91697    1.000
    Zn3      Zn       0.66667    0.33334    0.08303    1.000
    Zn4      Zn       0.33333    0.66666    0.58303    1.000
    C1       C        0.54000    0.46000    0.01500    1.000
    C2       C        0.92000    0.46000    0.48500    1.000
    C3       C        0.46000    0.54000    0.51500    1.000
    C4       C        0.46000    0.92000    0.98500    1.000
    C5       C        0.66667    0.33334    0.20500    1.000
    C6       C        0.54000    0.08000    0.01500    1.000
    C7       C        0.08000    0.54000    0.98500    1.000
    C8       C        0.46000    0.54000    0.98500    1.000
    C9       C        0.54000    0.08000    0.48500    1.000
    C10      C        0.66667    0.33334    0.29500    1.000
    C11      C        0.92000    0.46000    0.01500    1.000
    C12      C        0.33333    0.66666    0.70500    1.000
    C13      C        0.33333    0.66666    0.79500    1.000
    C14      C        0.08000    0.54000    0.51500    1.000
    C15      C        0.46000    0.92000    0.51500    1.000
    C16      C        0.54000    0.46000    0.48500    1.000
