# CIF file generated by openbabel 3.1.0, see https://openbabel.org
data_I
_chemical_name_common 'image0'
_cell_length_a 14.5
_cell_length_b 18.577
_cell_length_c 15.394
_cell_angle_alpha 90
_cell_angle_beta 103.97
_cell_angle_gamma 90
_space_group_name_H-M_alt 'P 1'
_space_group_name_Hall 'P 1'
loop_
    _symmetry_equiv_pos_as_xyz
    x,y,z
loop_
    _atom_site_label
    _atom_site_type_symbol
    _atom_site_fract_x
    _atom_site_fract_y
    _atom_site_fract_z
    _atom_site_occupancy
    Cd1      Cd       0.61146    0.20923    0.11651    1.000
    Cd2      Cd       0.41301    0.30600    0.32715    1.000
    O1       O        0.43950    0.27040    0.19170    1.000
    O2       O        0.48050    0.27840    0.06350    1.000
    O3       O        0.02820    0.26490    0.03420    1.000
    O4       O        0.04460    0.26170    0.89440    1.000
    O5       O        0.25220    0.56370    0.00340    1.000
    O6       O        0.26190    0.51060    0.87940    1.000
    N1       N        0.71160    0.30820    0.10480    1.000
    N2       N        0.01490    0.60550    0.10520    1.000
    N3       N        0.32300    0.20280    0.32850    1.000
    N4       N        0.01460    0.90240    0.32440    1.000
    C1       C        0.42610    0.29090    0.11290    1.000
    C2       C        0.33120    0.32900    0.06860    1.000
    C3       C        0.24820    0.29020    0.04750    1.000
    C4       C        0.24090    0.21060    0.07260    1.000
    H1       H        0.17650    0.19450    0.05160    1.000
    H2       H        0.26020    0.20540    0.13650    1.000
    H3       H        0.28170    0.18210    0.04550    1.000
    C5       C        0.16130    0.32470    0.00160    1.000
    C6       C        0.06700    0.28170    0.97580    1.000
    C7       C        0.16100    0.39680    0.97660    1.000
    C8       C        0.07030    0.43440    0.92990    1.000
    H4       H        0.08400    0.48350    0.91820    1.000
    H5       H        0.02620    0.43320    0.96750    1.000
    H6       H        0.04300    0.41040    0.87450    1.000
    C9       C        0.24760    0.43400    0.99680    1.000
    C10      C        0.25480    0.50810    0.95780    1.000
    C11      C        0.33320    0.40090    0.04470    1.000
    C12      C        0.42680    0.44400    0.06870    1.000
    H7       H        0.41520    0.49250    0.04730    1.000
    H8       H        0.47260    0.42190    0.04140    1.000
    H9       H        0.45100    0.44460    0.13250    1.000
    C13      C        0.67810    0.37610    0.09500    1.000
    H10      H        0.61380    0.38390    0.09070    1.000
    C14      C        0.73610    0.43450    0.09110    1.000
    H11      H        0.71050    0.48070    0.08480    1.000
    C15      C        0.83000    0.42490    0.09640    1.000
    C16      C        0.86160    0.35530    0.10270    1.000
    H12      H        0.92520    0.34640    0.10460    1.000
    C17      C        0.80390    0.29960    0.10620    1.000
    H13      H        0.82870    0.25320    0.10970    1.000
    C18      C        0.89380    0.48690    0.09740    1.000
    C19      C        0.87200    0.54510    0.04000    1.000
    H14      H        0.81450    0.54590    0.99710    1.000
    C20      C        0.93470    0.60250    0.04540    1.000
    H15      H        0.91850    0.64020    0.00480    1.000
    C21      C        0.04140    0.54920    0.16020    1.000
    H16      H        0.09970    0.55070    0.20190    1.000
    C22      C        0.98420    0.48890    0.15670    1.000
    H17      H        0.00570    0.44980    0.19360    1.000
    C23      C        0.33790    0.13930    0.29840    1.000
    H18      H        0.39220    0.13570    0.27650    1.000
    C24      C        0.28750    0.07880    0.29410    1.000
    H19      H        0.30630    0.03620    0.27160    1.000
    C25      C        0.20100    0.08320    0.32690    1.000
    C26      C        0.18330    0.14940    0.36140    1.000
    H20      H        0.13000    0.15400    0.38460    1.000
    C27      C        0.23970    0.20750    0.36280    1.000
    H21      H        0.22440    0.25080    0.38620    1.000
    C28      C        0.13970    0.02060    0.32420    1.000
    C29      C        0.16960    0.95040    0.31940    1.000
    H22      H        0.23180    0.94110    0.31640    1.000
    C30      C        0.10730    0.89360    0.31900    1.000
    H23      H        0.12940    0.84700    0.31490    1.000
    C31      C        0.98680    0.96920    0.32770    1.000
    H24      H        0.92390    0.97740    0.32910    1.000
    C32      C        0.04520    0.02880    0.32930    1.000
    H25      H        0.02120    0.07470    0.33390    1.000
    Cd3      Cd       0.11146    0.70923    0.11651    1.000
    Cd4      Cd       0.91301    0.80600    0.32715    1.000
    O7       O        0.93950    0.77040    0.19170    1.000
    O8       O        0.98050    0.77840    0.06350    1.000
    O9       O        0.52820    0.76490    0.03420    1.000
    O10      O        0.54460    0.76170    0.89440    1.000
    O11      O        0.75220    0.06370    0.00340    1.000
    O12      O        0.76190    0.01060    0.87940    1.000
    N5       N        0.21160    0.80820    0.10480    1.000
    N6       N        0.51490    0.10550    0.10520    1.000
    N7       N        0.82300    0.70280    0.32850    1.000
    N8       N        0.51460    0.40240    0.32440    1.000
    C33      C        0.92610    0.79090    0.11290    1.000
    C34      C        0.83120    0.82900    0.06860    1.000
    C35      C        0.74820    0.79020    0.04750    1.000
    C36      C        0.74090    0.71060    0.07260    1.000
    H26      H        0.67650    0.69450    0.05160    1.000
    H27      H        0.76020    0.70540    0.13650    1.000
    H28      H        0.78170    0.68210    0.04550    1.000
    C37      C        0.66130    0.82470    0.00160    1.000
    C38      C        0.56700    0.78170    0.97580    1.000
    C39      C        0.66100    0.89680    0.97660    1.000
    C40      C        0.57030    0.93440    0.92990    1.000
    H29      H        0.58400    0.98350    0.91820    1.000
    H30      H        0.52620    0.93320    0.96750    1.000
    H31      H        0.54300    0.91040    0.87450    1.000
    C41      C        0.74760    0.93400    0.99680    1.000
    C42      C        0.75480    0.00810    0.95780    1.000
    C43      C        0.83320    0.90090    0.04470    1.000
    C44      C        0.92680    0.94400    0.06870    1.000
    H32      H        0.91520    0.99250    0.04730    1.000
    H33      H        0.97260    0.92190    0.04140    1.000
    H34      H        0.95100    0.94460    0.13250    1.000
    C45      C        0.17810    0.87610    0.09500    1.000
    H35      H        0.11380    0.88390    0.09070    1.000
    C46      C        0.23610    0.93450    0.09110    1.000
    H36      H        0.21050    0.98070    0.08480    1.000
    C47      C        0.33000    0.92490    0.09640    1.000
    C48      C        0.36160    0.85530    0.10270    1.000
    H37      H        0.42520    0.84640    0.10460    1.000
    C49      C        0.30390    0.79960    0.10620    1.000
    H38      H        0.32870    0.75320    0.10970    1.000
    C50      C        0.39380    0.98690    0.09740    1.000
    C51      C        0.37200    0.04510    0.04000    1.000
    H39      H        0.31450    0.04590    0.99710    1.000
    C52      C        0.43470    0.10250    0.04540    1.000
    H40      H        0.41850    0.14020    0.00480    1.000
    C53      C        0.54140    0.04920    0.16020    1.000
    H41      H        0.59970    0.05070    0.20190    1.000
    C54      C        0.48420    0.98890    0.15670    1.000
    H42      H        0.50570    0.94980    0.19360    1.000
    C55      C        0.83790    0.63930    0.29840    1.000
    H43      H        0.89220    0.63570    0.27650    1.000
    C56      C        0.78750    0.57880    0.29410    1.000
    H44      H        0.80630    0.53620    0.27160    1.000
    C57      C        0.70100    0.58320    0.32690    1.000
    C58      C        0.68330    0.64940    0.36140    1.000
    H45      H        0.63000    0.65400    0.38460    1.000
    C59      C        0.73970    0.70750    0.36280    1.000
    H46      H        0.72440    0.75080    0.38620    1.000
    C60      C        0.63970    0.52060    0.32420    1.000
    C61      C        0.66960    0.45040    0.31940    1.000
    H47      H        0.73180    0.44110    0.31640    1.000
    C62      C        0.60730    0.39360    0.31900    1.000
    H48      H        0.62940    0.34700    0.31490    1.000
    C63      C        0.48680    0.46920    0.32770    1.000
    H49      H        0.42390    0.47740    0.32910    1.000
    C64      C        0.54520    0.52880    0.32930    1.000
    H50      H        0.52120    0.57470    0.33390    1.000
    Cd5      Cd       0.61146    0.79077    0.61651    1.000
    Cd6      Cd       0.41301    0.69400    0.82715    1.000
    O13      O        0.43950    0.72960    0.69170    1.000
    O14      O        0.48050    0.72160    0.56350    1.000
    O15      O        0.02820    0.73510    0.53420    1.000
    O16      O        0.04460    0.73830    0.39440    1.000
    O17      O        0.25220    0.43630    0.50340    1.000
    O18      O        0.26190    0.48940    0.37940    1.000
    N9       N        0.71160    0.69180    0.60480    1.000
    N10      N        0.01490    0.39450    0.60520    1.000
    N11      N        0.32300    0.79720    0.82850    1.000
    N12      N        0.01460    0.09760    0.82440    1.000
    C65      C        0.42610    0.70910    0.61290    1.000
    C66      C        0.33120    0.67100    0.56860    1.000
    C67      C        0.24820    0.70980    0.54750    1.000
    C68      C        0.24090    0.78940    0.57260    1.000
    H51      H        0.17650    0.80550    0.55160    1.000
    H52      H        0.26020    0.79460    0.63650    1.000
    H53      H        0.28170    0.81790    0.54550    1.000
    C69      C        0.16130    0.67530    0.50160    1.000
    C70      C        0.06700    0.71830    0.47580    1.000
    C71      C        0.16100    0.60320    0.47660    1.000
    C72      C        0.07030    0.56560    0.42990    1.000
    H54      H        0.08400    0.51650    0.41820    1.000
    H55      H        0.02620    0.56680    0.46750    1.000
    H56      H        0.04300    0.58960    0.37450    1.000
    C73      C        0.24760    0.56600    0.49680    1.000
    C74      C        0.25480    0.49190    0.45780    1.000
    C75      C        0.33320    0.59910    0.54470    1.000
    C76      C        0.42680    0.55600    0.56870    1.000
    H57      H        0.41520    0.50750    0.54730    1.000
    H58      H        0.47260    0.57810    0.54140    1.000
    H59      H        0.45100    0.55540    0.63250    1.000
    C77      C        0.67810    0.62390    0.59500    1.000
    H60      H        0.61380    0.61610    0.59070    1.000
    C78      C        0.73610    0.56550    0.59110    1.000
    H61      H        0.71050    0.51930    0.58480    1.000
    C79      C        0.83000    0.57510    0.59640    1.000
    C80      C        0.86160    0.64470    0.60270    1.000
    H62      H        0.92520    0.65360    0.60460    1.000
    C81      C        0.80390    0.70040    0.60620    1.000
    H63      H        0.82870    0.74680    0.60970    1.000
    C82      C        0.89380    0.51310    0.59740    1.000
    C83      C        0.87200    0.45490    0.54000    1.000
    H64      H        0.81450    0.45410    0.49710    1.000
    C84      C        0.93470    0.39750    0.54540    1.000
    H65      H        0.91850    0.35980    0.50480    1.000
    C85      C        0.04140    0.45080    0.66020    1.000
    H66      H        0.09970    0.44930    0.70190    1.000
    C86      C        0.98420    0.51110    0.65670    1.000
    H67      H        0.00570    0.55020    0.69360    1.000
    C87      C        0.33790    0.86070    0.79840    1.000
    H68      H        0.39220    0.86430    0.77650    1.000
    C88      C        0.28750    0.92120    0.79410    1.000
    H69      H        0.30630    0.96380    0.77160    1.000
    C89      C        0.20100    0.91680    0.82690    1.000
    C90      C        0.18330    0.85060    0.86140    1.000
    H70      H        0.13000    0.84600    0.88460    1.000
    C91      C        0.23970    0.79250    0.86280    1.000
    H71      H        0.22440    0.74920    0.88620    1.000
    C92      C        0.13970    0.97940    0.82420    1.000
    C93      C        0.16960    0.04960    0.81940    1.000
    H72      H        0.23180    0.05890    0.81640    1.000
    C94      C        0.10730    0.10640    0.81900    1.000
    H73      H        0.12940    0.15300    0.81490    1.000
    C95      C        0.98680    0.03080    0.82770    1.000
    H74      H        0.92390    0.02260    0.82910    1.000
    C96      C        0.04520    0.97120    0.82930    1.000
    H75      H        0.02120    0.92530    0.83390    1.000
    Cd7      Cd       0.11146    0.29077    0.61651    1.000
    Cd8      Cd       0.91301    0.19400    0.82715    1.000
    O19      O        0.93950    0.22960    0.69170    1.000
    O20      O        0.98050    0.22160    0.56350    1.000
    O21      O        0.52820    0.23510    0.53420    1.000
    O22      O        0.54460    0.23830    0.39440    1.000
    O23      O        0.75220    0.93630    0.50340    1.000
    O24      O        0.76190    0.98940    0.37940    1.000
    N13      N        0.21160    0.19180    0.60480    1.000
    N14      N        0.51490    0.89450    0.60520    1.000
    N15      N        0.82300    0.29720    0.82850    1.000
    N16      N        0.51460    0.59760    0.82440    1.000
    C97      C        0.92610    0.20910    0.61290    1.000
    C98      C        0.83120    0.17100    0.56860    1.000
    C99      C        0.74820    0.20980    0.54750    1.000
    C100     C        0.74090    0.28940    0.57260    1.000
    H76      H        0.67650    0.30550    0.55160    1.000
    H77      H        0.76020    0.29460    0.63650    1.000
    H78      H        0.78170    0.31790    0.54550    1.000
    C101     C        0.66130    0.17530    0.50160    1.000
    C102     C        0.56700    0.21830    0.47580    1.000
    C103     C        0.66100    0.10320    0.47660    1.000
    C104     C        0.57030    0.06560    0.42990    1.000
    H79      H        0.58400    0.01650    0.41820    1.000
    H80      H        0.52620    0.06680    0.46750    1.000
    H81      H        0.54300    0.08960    0.37450    1.000
    C105     C        0.74760    0.06600    0.49680    1.000
    C106     C        0.75480    0.99190    0.45780    1.000
    C107     C        0.83320    0.09910    0.54470    1.000
    C108     C        0.92680    0.05600    0.56870    1.000
    H82      H        0.91520    0.00750    0.54730    1.000
    H83      H        0.97260    0.07810    0.54140    1.000
    H84      H        0.95100    0.05540    0.63250    1.000
    C109     C        0.17810    0.12390    0.59500    1.000
    H85      H        0.11380    0.11610    0.59070    1.000
    C110     C        0.23610    0.06550    0.59110    1.000
    H86      H        0.21050    0.01930    0.58480    1.000
    C111     C        0.33000    0.07510    0.59640    1.000
    C112     C        0.36160    0.14470    0.60270    1.000
    H87      H        0.42520    0.15360    0.60460    1.000
    C113     C        0.30390    0.20040    0.60620    1.000
    H88      H        0.32870    0.24680    0.60970    1.000
    C114     C        0.39380    0.01310    0.59740    1.000
    C115     C        0.37200    0.95490    0.54000    1.000
    H89      H        0.31450    0.95410    0.49710    1.000
    C116     C        0.43470    0.89750    0.54540    1.000
    H90      H        0.41850    0.85980    0.50480    1.000
    C117     C        0.54140    0.95080    0.66020    1.000
    H91      H        0.59970    0.94930    0.70190    1.000
    C118     C        0.48420    0.01110    0.65670    1.000
    H92      H        0.50570    0.05020    0.69360    1.000
    C119     C        0.83790    0.36070    0.79840    1.000
    H93      H        0.89220    0.36430    0.77650    1.000
    C120     C        0.78750    0.42120    0.79410    1.000
    H94      H        0.80630    0.46380    0.77160    1.000
    C121     C        0.70100    0.41680    0.82690    1.000
    C122     C        0.68330    0.35060    0.86140    1.000
    H95      H        0.63000    0.34600    0.88460    1.000
    C123     C        0.73970    0.29250    0.86280    1.000
    H96      H        0.72440    0.24920    0.88620    1.000
    C124     C        0.63970    0.47940    0.82420    1.000
    C125     C        0.66960    0.54960    0.81940    1.000
    H97      H        0.73180    0.55890    0.81640    1.000
    C126     C        0.60730    0.60640    0.81900    1.000
    H98      H        0.62940    0.65300    0.81490    1.000
    C127     C        0.48680    0.53080    0.82770    1.000
    H99      H        0.42390    0.52260    0.82910    1.000
    C128     C        0.54520    0.47120    0.82930    1.000
    H100     H        0.52120    0.42530    0.83390    1.000
