# CIF file generated by openbabel 3.1.0, see https://openbabel.org
data_I
_chemical_name_common 'image0'
_cell_length_a 30.8568
_cell_length_b 30.8568
_cell_length_c 6.4681
_cell_angle_alpha 90
_cell_angle_beta 90
_cell_angle_gamma 90
_space_group_name_H-M_alt 'P 1'
_space_group_name_Hall 'P 1'
loop_
    _symmetry_equiv_pos_as_xyz
    x,y,z
loop_
    _atom_site_label
    _atom_site_type_symbol
    _atom_site_fract_x
    _atom_site_fract_y
    _atom_site_fract_z
    _atom_site_occupancy
    Na1      Na       0.34048    0.72119    0.81931    1.000
    O1       O        0.44024    0.83950    0.97390    1.000
    O2       O        0.48556    0.80896    0.22930    1.000
    O3       O        0.35947    0.80380    0.66690    1.000
    C1       C        0.34101    0.81547    0.83030    1.000
    C2       C        0.33762    0.86311    0.87770    1.000
    H1       H        0.36570    0.87700    0.85380    1.000
    H2       H        0.32920    0.86700    0.02250    1.000
    H3       H        0.31580    0.87630    0.78770    1.000
    O4       O        0.32519    0.78942    0.95990    1.000
    O5       O        0.26569    0.70246    0.84850    1.000
    H4       H        0.27690    0.62400    0.93700    1.000
    H5       H        0.22510    0.62400    0.92050    1.000
    H6       H        0.24800    0.62400    0.14250    1.000
    Na2      Na       0.84048    0.22119    0.31931    1.000
    O6       O        0.94024    0.33950    0.47390    1.000
    O7       O        0.98556    0.30896    0.72930    1.000
    O8       O        0.85947    0.30380    0.16690    1.000
    C3       C        0.84101    0.31547    0.33030    1.000
    C4       C        0.83762    0.36311    0.37770    1.000
    H7       H        0.86570    0.37700    0.35380    1.000
    H8       H        0.82920    0.36700    0.52250    1.000
    H9       H        0.81580    0.37630    0.28770    1.000
    O9       O        0.82519    0.28942    0.45990    1.000
    O10      O        0.76569    0.20246    0.34850    1.000
    H10      H        0.77690    0.12400    0.43700    1.000
    H11      H        0.72510    0.12400    0.42050    1.000
    H12      H        0.74800    0.12400    0.64250    1.000
    Na3      Na       0.15952    0.27881    0.31931    1.000
    O11      O        0.05976    0.16050    0.47390    1.000
    O12      O        0.01444    0.19104    0.72930    1.000
    O13      O        0.14053    0.19620    0.16690    1.000
    C5       C        0.15899    0.18453    0.33030    1.000
    C6       C        0.16238    0.13689    0.37770    1.000
    H13      H        0.13430    0.12300    0.35380    1.000
    H14      H        0.17080    0.13300    0.52250    1.000
    H15      H        0.18420    0.12370    0.28770    1.000
    O14      O        0.17481    0.21058    0.45990    1.000
    O15      O        0.23431    0.29754    0.34850    1.000
    H16      H        0.22310    0.37600    0.43700    1.000
    H17      H        0.27490    0.37600    0.42050    1.000
    H18      H        0.25200    0.37600    0.64250    1.000
    Na4      Na       0.65952    0.77881    0.81931    1.000
    O16      O        0.55976    0.66050    0.97390    1.000
    O17      O        0.51444    0.69104    0.22930    1.000
    O18      O        0.64053    0.69620    0.66690    1.000
    C7       C        0.65899    0.68453    0.83030    1.000
    C8       C        0.66238    0.63689    0.87770    1.000
    H19      H        0.63430    0.62300    0.85380    1.000
    H20      H        0.67080    0.63300    0.02250    1.000
    H21      H        0.68420    0.62370    0.78770    1.000
    O19      O        0.67481    0.71058    0.95990    1.000
    O20      O        0.73431    0.79754    0.84850    1.000
    H22      H        0.72310    0.87600    0.93700    1.000
    H23      H        0.77490    0.87600    0.92050    1.000
    H24      H        0.75200    0.87600    0.14250    1.000
    Na5      Na       0.52881    0.09048    0.06931    1.000
    O21      O        0.41050    0.19024    0.22390    1.000
    O22      O        0.44104    0.23556    0.47930    1.000
    O23      O        0.44620    0.10947    0.91690    1.000
    C9       C        0.43453    0.09101    0.08030    1.000
    C10      C        0.38689    0.08762    0.12770    1.000
    H25      H        0.37300    0.11570    0.10380    1.000
    H26      H        0.38300    0.07920    0.27250    1.000
    H27      H        0.37370    0.06580    0.03770    1.000
    O24      O        0.46058    0.07519    0.20990    1.000
    O25      O        0.54754    0.01569    0.09850    1.000
    H28      H        0.62600    0.02690    0.18700    1.000
    H29      H        0.62600    0.97510    0.17050    1.000
    H30      H        0.62600    0.99800    0.39250    1.000
    Na6      Na       0.02881    0.59048    0.56931    1.000
    O26      O        0.91050    0.69024    0.72390    1.000
    O27      O        0.94104    0.73556    0.97930    1.000
    O28      O        0.94620    0.60947    0.41690    1.000
    C11      C        0.93453    0.59101    0.58030    1.000
    C12      C        0.88689    0.58762    0.62770    1.000
    H31      H        0.87300    0.61570    0.60380    1.000
    H32      H        0.88300    0.57920    0.77250    1.000
    H33      H        0.87370    0.56580    0.53770    1.000
    O29      O        0.96058    0.57519    0.70990    1.000
    O30      O        0.04754    0.51569    0.59850    1.000
    H34      H        0.12600    0.52690    0.68700    1.000
    H35      H        0.12600    0.47510    0.67050    1.000
    H36      H        0.12600    0.49800    0.89250    1.000
    Na7      Na       0.97119    0.90952    0.56931    1.000
    O31      O        0.08950    0.80976    0.72390    1.000
    O32      O        0.05896    0.76444    0.97930    1.000
    O33      O        0.05380    0.89053    0.41690    1.000
    C13      C        0.06547    0.90899    0.58030    1.000
    C14      C        0.11311    0.91238    0.62770    1.000
    H37      H        0.12700    0.88430    0.60380    1.000
    H38      H        0.11700    0.92080    0.77250    1.000
    H39      H        0.12630    0.93420    0.53770    1.000
    O34      O        0.03942    0.92481    0.70990    1.000
    O35      O        0.95246    0.98431    0.59850    1.000
    H40      H        0.87400    0.97310    0.68700    1.000
    H41      H        0.87400    0.02490    0.67050    1.000
    H42      H        0.87400    0.00200    0.89250    1.000
    Na8      Na       0.47119    0.40952    0.06931    1.000
    O36      O        0.58950    0.30976    0.22390    1.000
    O37      O        0.55896    0.26444    0.47930    1.000
    O38      O        0.55380    0.39053    0.91690    1.000
    C15      C        0.56547    0.40899    0.08030    1.000
    C16      C        0.61311    0.41238    0.12770    1.000
    H43      H        0.62700    0.38430    0.10380    1.000
    H44      H        0.61700    0.42080    0.27250    1.000
    H45      H        0.62630    0.43420    0.03770    1.000
    O39      O        0.53942    0.42481    0.20990    1.000
    O40      O        0.45246    0.48431    0.09850    1.000
    H46      H        0.37400    0.47310    0.18700    1.000
    H47      H        0.37400    0.52490    0.17050    1.000
    H48      H        0.37400    0.50200    0.39250    1.000
    Na9      Na       0.15952    0.72119    0.18069    1.000
    O41      O        0.05976    0.83950    0.02610    1.000
    O42      O        0.01444    0.80896    0.77070    1.000
    O43      O        0.14053    0.80380    0.33310    1.000
    C17      C        0.15899    0.81547    0.16970    1.000
    C18      C        0.16238    0.86311    0.12230    1.000
    H49      H        0.13430    0.87700    0.14620    1.000
    H50      H        0.17080    0.86700    0.97750    1.000
    H51      H        0.18420    0.87630    0.21230    1.000
    O44      O        0.17481    0.78942    0.04010    1.000
    O45      O        0.23431    0.70246    0.15150    1.000
    H52      H        0.22310    0.62400    0.06300    1.000
    H53      H        0.27490    0.62400    0.07950    1.000
    H54      H        0.25200    0.62400    0.85750    1.000
    Na10     Na       0.65952    0.22119    0.68069    1.000
    O46      O        0.55976    0.33950    0.52610    1.000
    O47      O        0.51444    0.30896    0.27070    1.000
    O48      O        0.64053    0.30380    0.83310    1.000
    C19      C        0.65899    0.31547    0.66970    1.000
    C20      C        0.66238    0.36311    0.62230    1.000
    H55      H        0.63430    0.37700    0.64620    1.000
    H56      H        0.67080    0.36700    0.47750    1.000
    H57      H        0.68420    0.37630    0.71230    1.000
    O49      O        0.67481    0.28942    0.54010    1.000
    O50      O        0.73431    0.20246    0.65150    1.000
    H58      H        0.72310    0.12400    0.56300    1.000
    H59      H        0.77490    0.12400    0.57950    1.000
    H60      H        0.75200    0.12400    0.35750    1.000
    Na11     Na       0.34048    0.27881    0.68069    1.000
    O51      O        0.44024    0.16050    0.52610    1.000
    O52      O        0.48556    0.19104    0.27070    1.000
    O53      O        0.35947    0.19620    0.83310    1.000
    C21      C        0.34101    0.18453    0.66970    1.000
    C22      C        0.33762    0.13689    0.62230    1.000
    H61      H        0.36570    0.12300    0.64620    1.000
    H62      H        0.32920    0.13300    0.47750    1.000
    H63      H        0.31580    0.12370    0.71230    1.000
    O54      O        0.32519    0.21058    0.54010    1.000
    O55      O        0.26569    0.29754    0.65150    1.000
    H64      H        0.27690    0.37600    0.56300    1.000
    H65      H        0.22510    0.37600    0.57950    1.000
    H66      H        0.24800    0.37600    0.35750    1.000
    Na12     Na       0.84048    0.77881    0.18069    1.000
    O56      O        0.94024    0.66050    0.02610    1.000
    O57      O        0.98556    0.69104    0.77070    1.000
    O58      O        0.85947    0.69620    0.33310    1.000
    C23      C        0.84101    0.68453    0.16970    1.000
    C24      C        0.83762    0.63689    0.12230    1.000
    H67      H        0.86570    0.62300    0.14620    1.000
    H68      H        0.82920    0.63300    0.97750    1.000
    H69      H        0.81580    0.62370    0.21230    1.000
    O59      O        0.82519    0.71058    0.04010    1.000
    O60      O        0.76569    0.79754    0.15150    1.000
    H70      H        0.77690    0.87600    0.06300    1.000
    H71      H        0.72510    0.87600    0.07950    1.000
    H72      H        0.74800    0.87600    0.85750    1.000
    Na13     Na       0.97119    0.09048    0.93069    1.000
    O61      O        0.08950    0.19024    0.77610    1.000
    O62      O        0.05896    0.23556    0.52070    1.000
    O63      O        0.05380    0.10947    0.08310    1.000
    C25      C        0.06547    0.09101    0.91970    1.000
    C26      C        0.11311    0.08762    0.87230    1.000
    H73      H        0.12700    0.11570    0.89620    1.000
    H74      H        0.11700    0.07920    0.72750    1.000
    H75      H        0.12630    0.06580    0.96230    1.000
    O64      O        0.03942    0.07519    0.79010    1.000
    O65      O        0.95246    0.01569    0.90150    1.000
    H76      H        0.87400    0.02690    0.81300    1.000
    H77      H        0.87400    0.97510    0.82950    1.000
    H78      H        0.87400    0.99800    0.60750    1.000
    Na14     Na       0.47119    0.59048    0.43069    1.000
    O66      O        0.58950    0.69024    0.27610    1.000
    O67      O        0.55896    0.73556    0.02070    1.000
    O68      O        0.55380    0.60947    0.58310    1.000
    C27      C        0.56547    0.59101    0.41970    1.000
    C28      C        0.61311    0.58762    0.37230    1.000
    H79      H        0.62700    0.61570    0.39620    1.000
    H80      H        0.61700    0.57920    0.22750    1.000
    H81      H        0.62630    0.56580    0.46230    1.000
    O69      O        0.53942    0.57519    0.29010    1.000
    O70      O        0.45246    0.51569    0.40150    1.000
    H82      H        0.37400    0.52690    0.31300    1.000
    H83      H        0.37400    0.47510    0.32950    1.000
    H84      H        0.37400    0.49800    0.10750    1.000
    Na15     Na       0.52881    0.90952    0.43069    1.000
    O71      O        0.41050    0.80976    0.27610    1.000
    O72      O        0.44104    0.76444    0.02070    1.000
    O73      O        0.44620    0.89053    0.58310    1.000
    C29      C        0.43453    0.90899    0.41970    1.000
    C30      C        0.38689    0.91238    0.37230    1.000
    H85      H        0.37300    0.88430    0.39620    1.000
    H86      H        0.38300    0.92080    0.22750    1.000
    H87      H        0.37370    0.93420    0.46230    1.000
    O74      O        0.46058    0.92481    0.29010    1.000
    O75      O        0.54754    0.98431    0.40150    1.000
    H88      H        0.62600    0.97310    0.31300    1.000
    H89      H        0.62600    0.02490    0.32950    1.000
    H90      H        0.62600    0.00200    0.10750    1.000
    Na16     Na       0.02881    0.40952    0.93069    1.000
    O76      O        0.91050    0.30976    0.77610    1.000
    O77      O        0.94104    0.26444    0.52070    1.000
    O78      O        0.94620    0.39053    0.08310    1.000
    C31      C        0.93453    0.40899    0.91970    1.000
    C32      C        0.88689    0.41238    0.87230    1.000
    H91      H        0.87300    0.38430    0.89620    1.000
    H92      H        0.88300    0.42080    0.72750    1.000
    H93      H        0.87370    0.43420    0.96230    1.000
    O79      O        0.96058    0.42481    0.79010    1.000
    O80      O        0.04754    0.48431    0.90150    1.000
    H94      H        0.12600    0.47310    0.81300    1.000
    H95      H        0.12600    0.52490    0.82950    1.000
    H96      H        0.12600    0.50200    0.60750    1.000
    Na17     Na       0.65952    0.27881    0.18069    1.000
    O81      O        0.55976    0.16050    0.02610    1.000
    O82      O        0.51444    0.19104    0.77070    1.000
    O83      O        0.64053    0.19620    0.33310    1.000
    C33      C        0.65899    0.18453    0.16970    1.000
    C34      C        0.66238    0.13689    0.12230    1.000
    H97      H        0.63430    0.12300    0.14620    1.000
    H98      H        0.67080    0.13300    0.97750    1.000
    H99      H        0.68420    0.12370    0.21230    1.000
    O84      O        0.67481    0.21058    0.04010    1.000
    O85      O        0.73431    0.29754    0.15150    1.000
    H100     H        0.72310    0.37600    0.06300    1.000
    H101     H        0.77490    0.37600    0.07950    1.000
    H102     H        0.75200    0.37600    0.85750    1.000
    Na18     Na       0.15952    0.77881    0.68069    1.000
    O86      O        0.05976    0.66050    0.52610    1.000
    O87      O        0.01444    0.69104    0.27070    1.000
    O88      O        0.14053    0.69620    0.83310    1.000
    C35      C        0.15899    0.68453    0.66970    1.000
    C36      C        0.16238    0.63689    0.62230    1.000
    H103     H        0.13430    0.62300    0.64620    1.000
    H104     H        0.17080    0.63300    0.47750    1.000
    H105     H        0.18420    0.62370    0.71230    1.000
    O89      O        0.17481    0.71058    0.54010    1.000
    O90      O        0.23431    0.79754    0.65150    1.000
    H106     H        0.22310    0.87600    0.56300    1.000
    H107     H        0.27490    0.87600    0.57950    1.000
    H108     H        0.25200    0.87600    0.35750    1.000
    Na19     Na       0.84048    0.72119    0.68069    1.000
    O91      O        0.94024    0.83950    0.52610    1.000
    O92      O        0.98556    0.80896    0.27070    1.000
    O93      O        0.85947    0.80380    0.83310    1.000
    C37      C        0.84101    0.81547    0.66970    1.000
    C38      C        0.83762    0.86311    0.62230    1.000
    H109     H        0.86570    0.87700    0.64620    1.000
    H110     H        0.82920    0.86700    0.47750    1.000
    H111     H        0.81580    0.87630    0.71230    1.000
    O94      O        0.82519    0.78942    0.54010    1.000
    O95      O        0.76569    0.70246    0.65150    1.000
    H112     H        0.77690    0.62400    0.56300    1.000
    H113     H        0.72510    0.62400    0.57950    1.000
    H114     H        0.74800    0.62400    0.35750    1.000
    Na20     Na       0.34048    0.22119    0.18069    1.000
    O96      O        0.44024    0.33950    0.02610    1.000
    O97      O        0.48556    0.30896    0.77070    1.000
    O98      O        0.35947    0.30380    0.33310    1.000
    C39      C        0.34101    0.31547    0.16970    1.000
    C40      C        0.33762    0.36311    0.12230    1.000
    H115     H        0.36570    0.37700    0.14620    1.000
    H116     H        0.32920    0.36700    0.97750    1.000
    H117     H        0.31580    0.37630    0.21230    1.000
    O99      O        0.32519    0.28942    0.04010    1.000
    O100     O        0.26569    0.20246    0.15150    1.000
    H118     H        0.27690    0.12400    0.06300    1.000
    H119     H        0.22510    0.12400    0.07950    1.000
    H120     H        0.24800    0.12400    0.85750    1.000
    Na21     Na       0.47119    0.90952    0.93069    1.000
    O101     O        0.58950    0.80976    0.77610    1.000
    O102     O        0.55896    0.76444    0.52070    1.000
    O103     O        0.55380    0.89053    0.08310    1.000
    C41      C        0.56547    0.90899    0.91970    1.000
    C42      C        0.61311    0.91238    0.87230    1.000
    H121     H        0.62700    0.88430    0.89620    1.000
    H122     H        0.61700    0.92080    0.72750    1.000
    H123     H        0.62630    0.93420    0.96230    1.000
    O104     O        0.53942    0.92481    0.79010    1.000
    O105     O        0.45246    0.98431    0.90150    1.000
    H124     H        0.37400    0.97310    0.81300    1.000
    H125     H        0.37400    0.02490    0.82950    1.000
    H126     H        0.37400    0.00200    0.60750    1.000
    Na22     Na       0.97119    0.40952    0.43069    1.000
    O106     O        0.08950    0.30976    0.27610    1.000
    O107     O        0.05896    0.26444    0.02070    1.000
    O108     O        0.05380    0.39053    0.58310    1.000
    C43      C        0.06547    0.40899    0.41970    1.000
    C44      C        0.11311    0.41238    0.37230    1.000
    H127     H        0.12700    0.38430    0.39620    1.000
    H128     H        0.11700    0.42080    0.22750    1.000
    H129     H        0.12630    0.43420    0.46230    1.000
    O109     O        0.03942    0.42481    0.29010    1.000
    O110     O        0.95246    0.48431    0.40150    1.000
    H130     H        0.87400    0.47310    0.31300    1.000
    H131     H        0.87400    0.52490    0.32950    1.000
    H132     H        0.87400    0.50200    0.10750    1.000
    Na23     Na       0.02881    0.09048    0.43069    1.000
    O111     O        0.91050    0.19024    0.27610    1.000
    O112     O        0.94104    0.23556    0.02070    1.000
    O113     O        0.94620    0.10947    0.58310    1.000
    C45      C        0.93453    0.09101    0.41970    1.000
    C46      C        0.88689    0.08762    0.37230    1.000
    H133     H        0.87300    0.11570    0.39620    1.000
    H134     H        0.88300    0.07920    0.22750    1.000
    H135     H        0.87370    0.06580    0.46230    1.000
    O114     O        0.96058    0.07519    0.29010    1.000
    O115     O        0.04754    0.01569    0.40150    1.000
    H136     H        0.12600    0.02690    0.31300    1.000
    H137     H        0.12600    0.97510    0.32950    1.000
    H138     H        0.12600    0.99800    0.10750    1.000
    Na24     Na       0.52881    0.59048    0.93069    1.000
    O116     O        0.41050    0.69024    0.77610    1.000
    O117     O        0.44104    0.73556    0.52070    1.000
    O118     O        0.44620    0.60947    0.08310    1.000
    C47      C        0.43453    0.59101    0.91970    1.000
    C48      C        0.38689    0.58762    0.87230    1.000
    H139     H        0.37300    0.61570    0.89620    1.000
    H140     H        0.38300    0.57920    0.72750    1.000
    H141     H        0.37370    0.56580    0.96230    1.000
    O119     O        0.46058    0.57519    0.79010    1.000
    O120     O        0.54754    0.51569    0.90150    1.000
    H142     H        0.62600    0.52690    0.81300    1.000
    H143     H        0.62600    0.47510    0.82950    1.000
    H144     H        0.62600    0.49800    0.60750    1.000
    Na25     Na       0.84048    0.27881    0.81931    1.000
    O121     O        0.94024    0.16050    0.97390    1.000
    O122     O        0.98556    0.19104    0.22930    1.000
    O123     O        0.85947    0.19620    0.66690    1.000
    C49      C        0.84101    0.18453    0.83030    1.000
    C50      C        0.83762    0.13689    0.87770    1.000
    H145     H        0.86570    0.12300    0.85380    1.000
    H146     H        0.82920    0.13300    0.02250    1.000
    H147     H        0.81580    0.12370    0.78770    1.000
    O124     O        0.82519    0.21058    0.95990    1.000
    O125     O        0.76569    0.29754    0.84850    1.000
    H148     H        0.77690    0.37600    0.93700    1.000
    H149     H        0.72510    0.37600    0.92050    1.000
    H150     H        0.74800    0.37600    0.14250    1.000
    Na26     Na       0.34048    0.77881    0.31931    1.000
    O126     O        0.44024    0.66050    0.47390    1.000
    O127     O        0.48556    0.69104    0.72930    1.000
    O128     O        0.35947    0.69620    0.16690    1.000
    C51      C        0.34101    0.68453    0.33030    1.000
    C52      C        0.33762    0.63689    0.37770    1.000
    H151     H        0.36570    0.62300    0.35380    1.000
    H152     H        0.32920    0.63300    0.52250    1.000
    H153     H        0.31580    0.62370    0.28770    1.000
    O129     O        0.32519    0.71058    0.45990    1.000
    O130     O        0.26569    0.79754    0.34850    1.000
    H154     H        0.27690    0.87600    0.43700    1.000
    H155     H        0.22510    0.87600    0.42050    1.000
    H156     H        0.24800    0.87600    0.64250    1.000
    Na27     Na       0.65952    0.72119    0.31931    1.000
    O131     O        0.55976    0.83950    0.47390    1.000
    O132     O        0.51444    0.80896    0.72930    1.000
    O133     O        0.64053    0.80380    0.16690    1.000
    C53      C        0.65899    0.81547    0.33030    1.000
    C54      C        0.66238    0.86311    0.37770    1.000
    H157     H        0.63430    0.87700    0.35380    1.000
    H158     H        0.67080    0.86700    0.52250    1.000
    H159     H        0.68420    0.87630    0.28770    1.000
    O134     O        0.67481    0.78942    0.45990    1.000
    O135     O        0.73431    0.70246    0.34850    1.000
    H160     H        0.72310    0.62400    0.43700    1.000
    H161     H        0.77490    0.62400    0.42050    1.000
    H162     H        0.75200    0.62400    0.64250    1.000
    Na28     Na       0.15952    0.22119    0.81931    1.000
    O136     O        0.05976    0.33950    0.97390    1.000
    O137     O        0.01444    0.30896    0.22930    1.000
    O138     O        0.14053    0.30380    0.66690    1.000
    C55      C        0.15899    0.31547    0.83030    1.000
    C56      C        0.16238    0.36311    0.87770    1.000
    H163     H        0.13430    0.37700    0.85380    1.000
    H164     H        0.17080    0.36700    0.02250    1.000
    H165     H        0.18420    0.37630    0.78770    1.000
    O139     O        0.17481    0.28942    0.95990    1.000
    O140     O        0.23431    0.20246    0.84850    1.000
    H166     H        0.22310    0.12400    0.93700    1.000
    H167     H        0.27490    0.12400    0.92050    1.000
    H168     H        0.25200    0.12400    0.14250    1.000
    Na29     Na       0.02881    0.90952    0.06931    1.000
    O141     O        0.91050    0.80976    0.22390    1.000
    O142     O        0.94104    0.76444    0.47930    1.000
    O143     O        0.94620    0.89053    0.91690    1.000
    C57      C        0.93453    0.90899    0.08030    1.000
    C58      C        0.88689    0.91238    0.12770    1.000
    H169     H        0.87300    0.88430    0.10380    1.000
    H170     H        0.88300    0.92080    0.27250    1.000
    H171     H        0.87370    0.93420    0.03770    1.000
    O144     O        0.96058    0.92481    0.20990    1.000
    O145     O        0.04754    0.98431    0.09850    1.000
    H172     H        0.12600    0.97310    0.18700    1.000
    H173     H        0.12600    0.02490    0.17050    1.000
    H174     H        0.12600    0.00200    0.39250    1.000
    Na30     Na       0.52881    0.40952    0.56931    1.000
    O146     O        0.41050    0.30976    0.72390    1.000
    O147     O        0.44104    0.26444    0.97930    1.000
    O148     O        0.44620    0.39053    0.41690    1.000
    C59      C        0.43453    0.40899    0.58030    1.000
    C60      C        0.38689    0.41238    0.62770    1.000
    H175     H        0.37300    0.38430    0.60380    1.000
    H176     H        0.38300    0.42080    0.77250    1.000
    H177     H        0.37370    0.43420    0.53770    1.000
    O149     O        0.46058    0.42481    0.70990    1.000
    O150     O        0.54754    0.48431    0.59850    1.000
    H178     H        0.62600    0.47310    0.68700    1.000
    H179     H        0.62600    0.52490    0.67050    1.000
    H180     H        0.62600    0.50200    0.89250    1.000
    Na31     Na       0.47119    0.09048    0.56931    1.000
    O151     O        0.58950    0.19024    0.72390    1.000
    O152     O        0.55896    0.23556    0.97930    1.000
    O153     O        0.55380    0.10947    0.41690    1.000
    C61      C        0.56547    0.09101    0.58030    1.000
    C62      C        0.61311    0.08762    0.62770    1.000
    H181     H        0.62700    0.11570    0.60380    1.000
    H182     H        0.61700    0.07920    0.77250    1.000
    H183     H        0.62630    0.06580    0.53770    1.000
    O154     O        0.53942    0.07519    0.70990    1.000
    O155     O        0.45246    0.01569    0.59850    1.000
    H184     H        0.37400    0.02690    0.68700    1.000
    H185     H        0.37400    0.97510    0.67050    1.000
    H186     H        0.37400    0.99800    0.89250    1.000
    Na32     Na       0.97119    0.59048    0.06931    1.000
    O156     O        0.08950    0.69024    0.22390    1.000
    O157     O        0.05896    0.73556    0.47930    1.000
    O158     O        0.05380    0.60947    0.91690    1.000
    C63      C        0.06547    0.59101    0.08030    1.000
    C64      C        0.11311    0.58762    0.12770    1.000
    H187     H        0.12700    0.61570    0.10380    1.000
    H188     H        0.11700    0.57920    0.27250    1.000
    H189     H        0.12630    0.56580    0.03770    1.000
    O159     O        0.03942    0.57519    0.20990    1.000
    O160     O        0.95246    0.51569    0.09850    1.000
    H190     H        0.87400    0.52690    0.18700    1.000
    H191     H        0.87400    0.47510    0.17050    1.000
    H192     H        0.87400    0.49800    0.39250    1.000
    Na33     Na       0.25000    0.77806    0.00000    1.000
    C65      C        0.25000    0.68309    0.00000    1.000
    C66      C        0.25000    0.63461    0.00000    1.000
    Na34     Na       0.75000    0.27806    0.50000    1.000
    C67      C        0.75000    0.18309    0.50000    1.000
    C68      C        0.75000    0.13461    0.50000    1.000
    Na35     Na       0.25000    0.22194    0.50000    1.000
    C69      C        0.25000    0.31691    0.50000    1.000
    C70      C        0.25000    0.36539    0.50000    1.000
    Na36     Na       0.75000    0.72194    0.00000    1.000
    C71      C        0.75000    0.81691    0.00000    1.000
    C72      C        0.75000    0.86539    0.00000    1.000
    Na37     Na       0.47194    0.00000    0.25000    1.000
    C73      C        0.56691    0.00000    0.25000    1.000
    C74      C        0.61539    0.00000    0.25000    1.000
    Na38     Na       0.97194    0.50000    0.75000    1.000
    C75      C        0.06691    0.50000    0.75000    1.000
    C76      C        0.11539    0.50000    0.75000    1.000
    Na39     Na       0.02806    0.00000    0.75000    1.000
    C77      C        0.93309    0.00000    0.75000    1.000
    C78      C        0.88461    0.00000    0.75000    1.000
    Na40     Na       0.52806    0.50000    0.25000    1.000
    C79      C        0.43309    0.50000    0.25000    1.000
    C80      C        0.38461    0.50000    0.25000    1.000
    Na41     Na       0.75000    0.22194    0.00000    1.000
    C81      C        0.75000    0.31691    0.00000    1.000
    C82      C        0.75000    0.36539    0.00000    1.000
    Na42     Na       0.25000    0.72194    0.50000    1.000
    C83      C        0.25000    0.81691    0.50000    1.000
    C84      C        0.25000    0.86539    0.50000    1.000
    Na43     Na       0.75000    0.77806    0.50000    1.000
    C85      C        0.75000    0.68309    0.50000    1.000
    C86      C        0.75000    0.63461    0.50000    1.000
    Na44     Na       0.25000    0.27806    0.00000    1.000
    C87      C        0.25000    0.18309    0.00000    1.000
    C88      C        0.25000    0.13461    0.00000    1.000
    Na45     Na       0.52806    0.00000    0.75000    1.000
    C89      C        0.43309    0.00000    0.75000    1.000
    C90      C        0.38461    0.00000    0.75000    1.000
    Na46     Na       0.02806    0.50000    0.25000    1.000
    C91      C        0.93309    0.50000    0.25000    1.000
    C92      C        0.88461    0.50000    0.25000    1.000
    Na47     Na       0.97194    0.00000    0.25000    1.000
    C93      C        0.06691    0.00000    0.25000    1.000
    C94      C        0.11539    0.00000    0.25000    1.000
    Na48     Na       0.47194    0.50000    0.75000    1.000
    C95      C        0.56691    0.50000    0.75000    1.000
    C96      C        0.61539    0.50000    0.75000    1.000
    Na49     Na       0.43656    0.81344    0.62500    1.000
    Na50     Na       0.93656    0.31344    0.12500    1.000
    Na51     Na       0.06344    0.18656    0.12500    1.000
    Na52     Na       0.56344    0.68656    0.62500    1.000
    Na53     Na       0.43656    0.18656    0.87500    1.000
    Na54     Na       0.93656    0.68656    0.37500    1.000
    Na55     Na       0.06344    0.81344    0.37500    1.000
    Na56     Na       0.56344    0.31344    0.87500    1.000
    Na57     Na       0.56344    0.18656    0.37500    1.000
    Na58     Na       0.06344    0.68656    0.87500    1.000
    Na59     Na       0.93656    0.81344    0.87500    1.000
    Na60     Na       0.43656    0.31344    0.37500    1.000
    Na61     Na       0.56344    0.81344    0.12500    1.000
    Na62     Na       0.06344    0.31344    0.62500    1.000
    Na63     Na       0.93656    0.18656    0.62500    1.000
    Na64     Na       0.43656    0.68656    0.12500    1.000
    Cl1      Cl       0.44473    0.80527    0.12500    1.000
    Cl2      Cl       0.94473    0.30527    0.62500    1.000
    Cl3      Cl       0.05527    0.19473    0.62500    1.000
    Cl4      Cl       0.55527    0.69473    0.12500    1.000
    Cl5      Cl       0.44473    0.19473    0.37500    1.000
    Cl6      Cl       0.94473    0.69473    0.87500    1.000
    Cl7      Cl       0.05527    0.80527    0.87500    1.000
    Cl8      Cl       0.55527    0.30527    0.37500    1.000
    Cl9      Cl       0.55527    0.19473    0.87500    1.000
    Cl10     Cl       0.05527    0.69473    0.37500    1.000
    Cl11     Cl       0.94473    0.80527    0.37500    1.000
    Cl12     Cl       0.44473    0.30527    0.87500    1.000
    Cl13     Cl       0.55527    0.80527    0.62500    1.000
    Cl14     Cl       0.05527    0.30527    0.12500    1.000
    Cl15     Cl       0.94473    0.19473    0.12500    1.000
    Cl16     Cl       0.44473    0.69473    0.62500    1.000
