# CIF file generated by openbabel 3.1.0, see https://openbabel.org
data_I
_chemical_name_common 'VIRPOC_clean'
_cell_length_a 17.8263
_cell_length_b 17.8263
_cell_length_c 17.8263
_cell_angle_alpha 60
_cell_angle_beta 60
_cell_angle_gamma 60
_space_group_name_H-M_alt 'P 1'
_space_group_name_Hall 'P 1'
loop_
    _symmetry_equiv_pos_as_xyz
    x,y,z
loop_
    _atom_site_label
    _atom_site_type_symbol
    _atom_site_fract_x
    _atom_site_fract_y
    _atom_site_fract_z
    _atom_site_occupancy
    Ni1      Ni       0.13551    0.75000    0.86449    1.000
    Ni2      Ni       0.25000    0.63551    0.25000    1.000
    Ni3      Ni       0.36449    0.25000    0.63551    1.000
    Ni4      Ni       0.75000    0.86449    0.75000    1.000
    Ni5      Ni       0.13551    0.86449    0.25000    1.000
    Ni6      Ni       0.25000    0.25000    0.86449    1.000
    Ni7      Ni       0.36449    0.63551    0.75000    1.000
    Ni8      Ni       0.75000    0.75000    0.63551    1.000
    Ni9      Ni       0.13551    0.25000    0.75000    1.000
    Ni10     Ni       0.25000    0.86449    0.63551    1.000
    Ni11     Ni       0.36449    0.75000    0.25000    1.000
    Ni12     Ni       0.75000    0.63551    0.86449    1.000
    Ni13     Ni       0.86449    0.25000    0.13551    1.000
    Ni14     Ni       0.75000    0.36449    0.75000    1.000
    Ni15     Ni       0.63551    0.75000    0.36449    1.000
    Ni16     Ni       0.25000    0.13551    0.25000    1.000
    Ni17     Ni       0.86449    0.13551    0.75000    1.000
    Ni18     Ni       0.75000    0.75000    0.13551    1.000
    Ni19     Ni       0.63551    0.36449    0.25000    1.000
    Ni20     Ni       0.25000    0.25000    0.36449    1.000
    Ni21     Ni       0.86449    0.75000    0.25000    1.000
    Ni22     Ni       0.75000    0.13551    0.36449    1.000
    Ni23     Ni       0.63551    0.25000    0.75000    1.000
    Ni24     Ni       0.25000    0.36449    0.13551    1.000
    H1       H        0.12180    0.56880    0.05040    1.000
    H2       H        0.06880    0.62180    0.25900    1.000
    H3       H        0.55040    0.25900    0.62180    1.000
    H4       H        0.75900    0.05040    0.56880    1.000
    H5       H        0.12180    0.05040    0.25900    1.000
    H6       H        0.06880    0.25900    0.05040    1.000
    H7       H        0.55040    0.62180    0.56880    1.000
    H8       H        0.75900    0.56880    0.62180    1.000
    H9       H        0.12180    0.25900    0.56880    1.000
    H10      H        0.06880    0.05040    0.62180    1.000
    H11      H        0.55040    0.56880    0.25900    1.000
    H12      H        0.75900    0.62180    0.05040    1.000
    H13      H        0.43120    0.87820    0.44960    1.000
    H14      H        0.37820    0.93120    0.24100    1.000
    H15      H        0.74100    0.44960    0.87820    1.000
    H16      H        0.94960    0.24100    0.93120    1.000
    H17      H        0.94960    0.87820    0.24100    1.000
    H18      H        0.74100    0.93120    0.44960    1.000
    H19      H        0.37820    0.44960    0.93120    1.000
    H20      H        0.43120    0.24100    0.87820    1.000
    H21      H        0.74100    0.87820    0.93120    1.000
    H22      H        0.94960    0.93120    0.87820    1.000
    H23      H        0.43120    0.44960    0.24100    1.000
    H24      H        0.37820    0.24100    0.44960    1.000
    H25      H        0.87820    0.43120    0.94960    1.000
    H26      H        0.93120    0.37820    0.74100    1.000
    H27      H        0.44960    0.74100    0.37820    1.000
    H28      H        0.24100    0.94960    0.43120    1.000
    H29      H        0.87820    0.94960    0.74100    1.000
    H30      H        0.93120    0.74100    0.94960    1.000
    H31      H        0.44960    0.37820    0.43120    1.000
    H32      H        0.24100    0.43120    0.37820    1.000
    H33      H        0.87820    0.74100    0.43120    1.000
    H34      H        0.93120    0.94960    0.37820    1.000
    H35      H        0.44960    0.43120    0.74100    1.000
    H36      H        0.24100    0.37820    0.94960    1.000
    H37      H        0.56880    0.12180    0.55040    1.000
    H38      H        0.62180    0.06880    0.75900    1.000
    H39      H        0.25900    0.55040    0.12180    1.000
    H40      H        0.05040    0.75900    0.06880    1.000
    H41      H        0.05040    0.12180    0.75900    1.000
    H42      H        0.25900    0.06880    0.55040    1.000
    H43      H        0.62180    0.55040    0.06880    1.000
    H44      H        0.56880    0.75900    0.12180    1.000
    H45      H        0.25900    0.12180    0.06880    1.000
    H46      H        0.05040    0.06880    0.12180    1.000
    H47      H        0.56880    0.55040    0.75900    1.000
    H48      H        0.62180    0.75900    0.55040    1.000
    C1       C        0.18058    0.55750    0.00730    1.000
    C2       C        0.05750    0.68058    0.25462    1.000
    C3       C        0.50730    0.25462    0.68058    1.000
    C4       C        0.75462    0.00730    0.55750    1.000
    C5       C        0.18058    0.00730    0.25462    1.000
    C6       C        0.05750    0.25462    0.00730    1.000
    C7       C        0.50730    0.68058    0.55750    1.000
    C8       C        0.75462    0.55750    0.68058    1.000
    C9       C        0.18058    0.25462    0.55750    1.000
    C10      C        0.05750    0.00730    0.68058    1.000
    C11      C        0.50730    0.55750    0.25462    1.000
    C12      C        0.75462    0.68058    0.00730    1.000
    C13      C        0.44250    0.81942    0.49270    1.000
    C14      C        0.31942    0.94250    0.24538    1.000
    C15      C        0.74538    0.49270    0.81942    1.000
    C16      C        0.99270    0.24538    0.94250    1.000
    C17      C        0.99270    0.81942    0.24538    1.000
    C18      C        0.74538    0.94250    0.49270    1.000
    C19      C        0.31942    0.49270    0.94250    1.000
    C20      C        0.44250    0.24538    0.81942    1.000
    C21      C        0.74538    0.81942    0.94250    1.000
    C22      C        0.99270    0.94250    0.81942    1.000
    C23      C        0.44250    0.49270    0.24538    1.000
    C24      C        0.31942    0.24538    0.49270    1.000
    C25      C        0.81942    0.44250    0.99270    1.000
    C26      C        0.94250    0.31942    0.74538    1.000
    C27      C        0.49270    0.74538    0.31942    1.000
    C28      C        0.24538    0.99270    0.44250    1.000
    C29      C        0.81942    0.99270    0.74538    1.000
    C30      C        0.94250    0.74538    0.99270    1.000
    C31      C        0.49270    0.31942    0.44250    1.000
    C32      C        0.24538    0.44250    0.31942    1.000
    C33      C        0.81942    0.74538    0.44250    1.000
    C34      C        0.94250    0.99270    0.31942    1.000
    C35      C        0.49270    0.44250    0.74538    1.000
    C36      C        0.24538    0.31942    0.99270    1.000
    C37      C        0.55750    0.18058    0.50730    1.000
    C38      C        0.68058    0.05750    0.75462    1.000
    C39      C        0.25462    0.50730    0.18058    1.000
    C40      C        0.00730    0.75462    0.05750    1.000
    C41      C        0.00730    0.18058    0.75462    1.000
    C42      C        0.25462    0.05750    0.50730    1.000
    C43      C        0.68058    0.50730    0.05750    1.000
    C44      C        0.55750    0.75462    0.18058    1.000
    C45      C        0.25462    0.18058    0.05750    1.000
    C46      C        0.00730    0.05750    0.18058    1.000
    C47      C        0.55750    0.50730    0.75462    1.000
    C48      C        0.68058    0.75462    0.50730    1.000
    N1       N        0.20539    0.61759    0.92479    1.000
    N2       N        0.11759    0.70539    0.25223    1.000
    N3       N        0.42479    0.25223    0.70539    1.000
    N4       N        0.75223    0.92479    0.61759    1.000
    N5       N        0.20539    0.92479    0.25223    1.000
    N6       N        0.11759    0.25223    0.92479    1.000
    N7       N        0.42479    0.70539    0.61759    1.000
    N8       N        0.75223    0.61759    0.70539    1.000
    N9       N        0.20539    0.25223    0.61759    1.000
    N10      N        0.11759    0.92479    0.70539    1.000
    N11      N        0.42479    0.61759    0.25223    1.000
    N12      N        0.75223    0.70539    0.92479    1.000
    N13      N        0.38241    0.79461    0.57521    1.000
    N14      N        0.29461    0.88241    0.24777    1.000
    N15      N        0.74777    0.57521    0.79461    1.000
    N16      N        0.07521    0.24777    0.88241    1.000
    N17      N        0.07521    0.79461    0.24777    1.000
    N18      N        0.74777    0.88241    0.57521    1.000
    N19      N        0.29461    0.57521    0.88241    1.000
    N20      N        0.38241    0.24777    0.79461    1.000
    N21      N        0.74777    0.79461    0.88241    1.000
    N22      N        0.07521    0.88241    0.79461    1.000
    N23      N        0.38241    0.57521    0.24777    1.000
    N24      N        0.29461    0.24777    0.57521    1.000
    N25      N        0.79461    0.38241    0.07521    1.000
    N26      N        0.88241    0.29461    0.74777    1.000
    N27      N        0.57521    0.74777    0.29461    1.000
    N28      N        0.24777    0.07521    0.38241    1.000
    N29      N        0.79461    0.07521    0.74777    1.000
    N30      N        0.88241    0.74777    0.07521    1.000
    N31      N        0.57521    0.29461    0.38241    1.000
    N32      N        0.24777    0.38241    0.29461    1.000
    N33      N        0.79461    0.74777    0.38241    1.000
    N34      N        0.88241    0.07521    0.29461    1.000
    N35      N        0.57521    0.38241    0.74777    1.000
    N36      N        0.24777    0.29461    0.07521    1.000
    N37      N        0.61759    0.20539    0.42479    1.000
    N38      N        0.70539    0.11759    0.75223    1.000
    N39      N        0.25223    0.42479    0.20539    1.000
    N40      N        0.92479    0.75223    0.11759    1.000
    N41      N        0.92479    0.20539    0.75223    1.000
    N42      N        0.25223    0.11759    0.42479    1.000
    N43      N        0.70539    0.42479    0.11759    1.000
    N44      N        0.61759    0.75223    0.20539    1.000
    N45      N        0.25223    0.20539    0.11759    1.000
    N46      N        0.92479    0.11759    0.20539    1.000
    N47      N        0.61759    0.42479    0.75223    1.000
    N48      N        0.70539    0.75223    0.42479    1.000
    N49      N        0.25000    0.47858    0.02142    1.000
    N50      N        0.97858    0.75000    0.25000    1.000
    N51      N        0.52142    0.25000    0.75000    1.000
    N52      N        0.75000    0.02142    0.47858    1.000
    N53      N        0.25000    0.02142    0.25000    1.000
    N54      N        0.97858    0.25000    0.02142    1.000
    N55      N        0.52142    0.75000    0.47858    1.000
    N56      N        0.75000    0.47858    0.75000    1.000
    N57      N        0.25000    0.25000    0.47858    1.000
    N58      N        0.97858    0.02142    0.75000    1.000
    N59      N        0.52142    0.47858    0.25000    1.000
    N60      N        0.75000    0.75000    0.02142    1.000
    N61      N        0.75000    0.52142    0.97858    1.000
    N62      N        0.02142    0.25000    0.75000    1.000
    N63      N        0.47858    0.75000    0.25000    1.000
    N64      N        0.25000    0.97858    0.52142    1.000
    N65      N        0.75000    0.97858    0.75000    1.000
    N66      N        0.02142    0.75000    0.97858    1.000
    N67      N        0.47858    0.25000    0.52142    1.000
    N68      N        0.25000    0.52142    0.25000    1.000
    N69      N        0.75000    0.75000    0.52142    1.000
    N70      N        0.02142    0.97858    0.25000    1.000
    N71      N        0.47858    0.52142    0.75000    1.000
    N72      N        0.25000    0.25000    0.97858    1.000
    O1       O        0.25000    0.75000    0.75000    1.000
    O2       O        0.25000    0.75000    0.25000    1.000
    O3       O        0.25000    0.25000    0.75000    1.000
    O4       O        0.75000    0.75000    0.75000    1.000
    O5       O        0.75000    0.25000    0.25000    1.000
    O6       O        0.75000    0.25000    0.75000    1.000
    O7       O        0.75000    0.75000    0.25000    1.000
    O8       O        0.25000    0.25000    0.25000    1.000
