# CIF file generated by openbabel 3.1.0, see https://openbabel.org
data_I
_chemical_name_common 'RINPEJ_charged'
_cell_length_a 13.1187
_cell_length_b 13.3892
_cell_length_c 22.9554
_cell_angle_alpha 90
_cell_angle_beta 90
_cell_angle_gamma 119.334
_space_group_name_H-M_alt 'P 1'
_space_group_name_Hall 'P 1'
loop_
    _symmetry_equiv_pos_as_xyz
    x,y,z
loop_
    _atom_site_label
    _atom_site_type_symbol
    _atom_site_fract_x
    _atom_site_fract_y
    _atom_site_fract_z
    _atom_site_occupancy
    Cd1      Cd       0.34016    0.65964    0.93522    1.000
    Cd2      Cd       0.31948    0.65964    0.56478    1.000
    H1       H        0.55840    0.55180    0.08140    1.000
    H2       H        0.84640    0.81800    0.84870    1.000
    H3       H        0.30160    0.59400    0.14430    1.000
    H4       H        0.49390    0.52320    0.25080    1.000
    H5       H        0.60930    0.52780    0.17400    1.000
    H6       H        0.68190    0.90580    0.80450    1.000
    H7       H        0.92970    0.22660    0.84080    1.000
    H8       H        0.09100    0.73960    0.80210    1.000
    H9       H        0.66960    0.04180    0.95810    1.000
    H10      H        0.04260    0.77440    0.96970    1.000
    H11      H        0.90030    0.01540    0.65960    1.000
    H12      H        0.85400    0.20660    0.93480    1.000
    H13      H        0.88780    0.80740    0.94640    1.000
    H14      H        0.08660    0.34800    0.69410    1.000
    H15      H        0.12970    0.23380    0.54500    1.000
    H16      H        0.99760    0.05300    0.57040    1.000
    H17      H        0.99340    0.55180    0.41860    1.000
    H18      H        0.97160    0.81800    0.65130    1.000
    H19      H        0.29240    0.59400    0.35570    1.000
    H20      H        0.02930    0.52320    0.24920    1.000
    H21      H        0.91850    0.52780    0.32600    1.000
    H22      H        0.22390    0.90580    0.69550    1.000
    H23      H        0.29690    0.22660    0.65920    1.000
    H24      H        0.64860    0.73960    0.69790    1.000
    H25      H        0.37220    0.04180    0.54190    1.000
    H26      H        0.73180    0.77440    0.53030    1.000
    H27      H        0.11510    0.01540    0.84040    1.000
    H28      H        0.35260    0.20660    0.56520    1.000
    H29      H        0.91960    0.80740    0.55360    1.000
    H30      H        0.26140    0.34800    0.80590    1.000
    H31      H        0.10410    0.23380    0.95500    1.000
    H32      H        0.05540    0.05300    0.92960    1.000
    C1       C        0.39860    0.60220    0.04300    1.000
    C2       C        0.42680    0.58100    0.10210    1.000
    C3       C        0.51620    0.55640    0.11280    1.000
    C4       C        0.90280    0.79820    0.85890    1.000
    C5       C        0.36310    0.57880    0.14910    1.000
    C6       C        0.47730    0.53680    0.21310    1.000
    C7       C        0.95840    0.77300    0.81740    1.000
    C8       C        0.38790    0.55440    0.20390    1.000
    C9       C        0.17130    0.72260    0.90300    1.000
    C10      C        0.54670    0.85160    0.90050    1.000
    C11      C        0.54510    0.53840    0.16780    1.000
    C12      C        0.71150    0.96560    0.83110    1.000
    C13      C        0.07820    0.74840    0.88740    1.000
    C14      C        0.81090    0.06600    0.81620    1.000
    C15      C        0.86420    0.15920    0.85260    1.000
    C16      C        0.65320    0.94940    0.88430    1.000
    C17      C        0.04960    0.75160    0.83160    1.000
    C18      C        0.70550    0.04460    0.92270    1.000
    C19      C        0.02060    0.77280    0.93110    1.000
    C20      C        0.98380    0.17700    0.68770    1.000
    C21      C        0.95660    0.08980    0.64990    1.000
    C22      C        0.81650    0.14860    0.90750    1.000
    C23      C        0.92950    0.79500    0.91720    1.000
    C24      C        0.06660    0.28680    0.66890    1.000
    C25      C        0.11780    0.30780    0.61730    1.000
    C26      C        0.19950    0.43180    0.60110    1.000
    C27      C        0.09240    0.21980    0.58090    1.000
    C28      C        0.01410    0.11280    0.59590    1.000
    C29      C        0.20360    0.60220    0.45700    1.000
    C30      C        0.15420    0.58100    0.39790    1.000
    C31      C        0.04020    0.55640    0.38720    1.000
    C32      C        0.89540    0.79820    0.64110    1.000
    C33      C        0.21570    0.57880    0.35090    1.000
    C34      C        0.05950    0.53680    0.28690    1.000
    C35      C        0.81460    0.77300    0.68260    1.000
    C36      C        0.16650    0.55440    0.29610    1.000
    C37      C        0.55130    0.72260    0.59700    1.000
    C38      C        0.30490    0.85160    0.59950    1.000
    C39      C        0.99330    0.53840    0.33220    1.000
    C40      C        0.25410    0.96560    0.66890    1.000
    C41      C        0.67020    0.74840    0.61260    1.000
    C42      C        0.25510    0.06600    0.68380    1.000
    C43      C        0.29500    0.15920    0.64740    1.000
    C44      C        0.29620    0.94940    0.61570    1.000
    C45      C        0.70200    0.75160    0.66840    1.000
    C46      C        0.33910    0.04460    0.57730    1.000
    C47      C        0.75220    0.77280    0.56890    1.000
    C48      C        0.19320    0.17700    0.81230    1.000
    C49      C        0.13320    0.08980    0.85010    1.000
    C50      C        0.33210    0.14860    0.59250    1.000
    C51      C        0.86550    0.79500    0.58280    1.000
    C52      C        0.22020    0.28680    0.83110    1.000
    C53      C        0.19000    0.30780    0.88270    1.000
    C54      C        0.23230    0.43180    0.89890    1.000
    C55      C        0.12740    0.21980    0.91910    1.000
    C56      C        0.09870    0.11280    0.90410    1.000
    N1       N        0.32360    0.55240    0.25350    1.000
    N2       N        0.93650    0.16700    0.74380    1.000
    N3       N        0.85710    0.06980    0.75590    1.000
    N4       N        0.93200    0.76900    0.75690    1.000
    N5       N        0.22880    0.55240    0.24650    1.000
    N6       N        0.23050    0.16700    0.75620    1.000
    N7       N        0.21270    0.06980    0.74410    1.000
    N8       N        0.83700    0.76900    0.74310    1.000
    O1       O        0.32630    0.63760    0.03750    1.000
    O2       O        0.45420    0.59460    0.99910    1.000
    O3       O        0.49040    0.85560    0.94520    1.000
    O4       O        0.51440    0.76440    0.87550    1.000
    O5       O        0.23270    0.71600    0.86690    1.000
    O6       O        0.18780    0.70880    0.95430    1.000
    O7       O        0.25270    0.44140    0.55290    1.000
    O8       O        0.20730    0.50900    0.62660    1.000
    O9       O        0.31130    0.63760    0.46250    1.000
    O10      O        0.14040    0.59460    0.50090    1.000
    O11      O        0.36520    0.85560    0.55480    1.000
    O12      O        0.25000    0.76440    0.62450    1.000
    O13      O        0.48330    0.71600    0.63310    1.000
    O14      O        0.52100    0.70880    0.54570    1.000
    O15      O        0.18870    0.44140    0.94710    1.000
    O16      O        0.30170    0.50900    0.87340    1.000
    Cd3      Cd       0.65984    0.34036    0.43522    1.000
    Cd4      Cd       0.68052    0.34036    0.06478    1.000
    H33      H        0.44160    0.44820    0.58140    1.000
    H34      H        0.15360    0.18200    0.34870    1.000
    H35      H        0.69840    0.40600    0.64430    1.000
    H36      H        0.50610    0.47680    0.75080    1.000
    H37      H        0.39070    0.47220    0.67400    1.000
    H38      H        0.31810    0.09420    0.30450    1.000
    H39      H        0.07030    0.77340    0.34080    1.000
    H40      H        0.90900    0.26040    0.30210    1.000
    H41      H        0.33040    0.95820    0.45810    1.000
    H42      H        0.95740    0.22560    0.46970    1.000
    H43      H        0.09970    0.98460    0.15960    1.000
    H44      H        0.14600    0.79340    0.43480    1.000
    H45      H        0.11220    0.19260    0.44640    1.000
    H46      H        0.91340    0.65200    0.19410    1.000
    H47      H        0.87030    0.76620    0.04500    1.000
    H48      H        0.00240    0.94700    0.07040    1.000
    H49      H        0.00660    0.44820    0.91860    1.000
    H50      H        0.02840    0.18200    0.15130    1.000
    H51      H        0.70760    0.40600    0.85570    1.000
    H52      H        0.97070    0.47680    0.74920    1.000
    H53      H        0.08150    0.47220    0.82600    1.000
    H54      H        0.77610    0.09420    0.19550    1.000
    H55      H        0.70310    0.77340    0.15920    1.000
    H56      H        0.35140    0.26040    0.19790    1.000
    H57      H        0.62780    0.95820    0.04190    1.000
    H58      H        0.26820    0.22560    0.03030    1.000
    H59      H        0.88490    0.98460    0.34040    1.000
    H60      H        0.64740    0.79340    0.06520    1.000
    H61      H        0.08040    0.19260    0.05360    1.000
    H62      H        0.73860    0.65200    0.30590    1.000
    H63      H        0.89590    0.76620    0.45500    1.000
    H64      H        0.94460    0.94700    0.42960    1.000
    C57      C        0.60140    0.39780    0.54300    1.000
    C58      C        0.57320    0.41900    0.60210    1.000
    C59      C        0.48380    0.44360    0.61280    1.000
    C60      C        0.09720    0.20180    0.35890    1.000
    C61      C        0.63690    0.42120    0.64910    1.000
    C62      C        0.52270    0.46320    0.71310    1.000
    C63      C        0.04160    0.22700    0.31740    1.000
    C64      C        0.61210    0.44560    0.70390    1.000
    C65      C        0.82870    0.27740    0.40300    1.000
    C66      C        0.45330    0.14840    0.40050    1.000
    C67      C        0.45490    0.46160    0.66780    1.000
    C68      C        0.28850    0.03440    0.33110    1.000
    C69      C        0.92180    0.25160    0.38740    1.000
    C70      C        0.18910    0.93400    0.31620    1.000
    C71      C        0.13580    0.84080    0.35260    1.000
    C72      C        0.34680    0.05060    0.38430    1.000
    C73      C        0.95040    0.24840    0.33160    1.000
    C74      C        0.29450    0.95540    0.42270    1.000
    C75      C        0.97940    0.22720    0.43110    1.000
    C76      C        0.01620    0.82300    0.18770    1.000
    C77      C        0.04340    0.91020    0.14990    1.000
    C78      C        0.18350    0.85140    0.40750    1.000
    C79      C        0.07050    0.20500    0.41720    1.000
    C80      C        0.93340    0.71320    0.16890    1.000
    C81      C        0.88220    0.69220    0.11730    1.000
    C82      C        0.80050    0.56820    0.10110    1.000
    C83      C        0.90760    0.78020    0.08090    1.000
    C84      C        0.98590    0.88720    0.09590    1.000
    C85      C        0.79640    0.39780    0.95700    1.000
    C86      C        0.84580    0.41900    0.89790    1.000
    C87      C        0.95980    0.44360    0.88720    1.000
    C88      C        0.10460    0.20180    0.14110    1.000
    C89      C        0.78430    0.42120    0.85090    1.000
    C90      C        0.94050    0.46320    0.78690    1.000
    C91      C        0.18540    0.22700    0.18260    1.000
    C92      C        0.83350    0.44560    0.79610    1.000
    C93      C        0.44870    0.27740    0.09700    1.000
    C94      C        0.69510    0.14840    0.09950    1.000
    C95      C        0.00670    0.46160    0.83220    1.000
    C96      C        0.74590    0.03440    0.16890    1.000
    C97      C        0.32980    0.25160    0.11260    1.000
    C98      C        0.74490    0.93400    0.18380    1.000
    C99      C        0.70500    0.84080    0.14740    1.000
    C100     C        0.70380    0.05060    0.11570    1.000
    C101     C        0.29800    0.24840    0.16840    1.000
    C102     C        0.66090    0.95540    0.07730    1.000
    C103     C        0.24780    0.22720    0.06890    1.000
    C104     C        0.80680    0.82300    0.31230    1.000
    C105     C        0.86680    0.91020    0.35010    1.000
    C106     C        0.66790    0.85140    0.09250    1.000
    C107     C        0.13450    0.20500    0.08280    1.000
    C108     C        0.77980    0.71320    0.33110    1.000
    C109     C        0.81000    0.69220    0.38270    1.000
    C110     C        0.76770    0.56820    0.39890    1.000
    C111     C        0.87260    0.78020    0.41910    1.000
    C112     C        0.90130    0.88720    0.40410    1.000
    N9       N        0.67640    0.44760    0.75350    1.000
    N10      N        0.06350    0.83300    0.24380    1.000
    N11      N        0.14290    0.93020    0.25590    1.000
    N12      N        0.06800    0.23100    0.25690    1.000
    N13      N        0.77120    0.44760    0.74650    1.000
    N14      N        0.76950    0.83300    0.25620    1.000
    N15      N        0.78730    0.93020    0.24410    1.000
    N16      N        0.16300    0.23100    0.24310    1.000
    O17      O        0.67370    0.36240    0.53750    1.000
    O18      O        0.54580    0.40540    0.49910    1.000
    O19      O        0.50960    0.14440    0.44520    1.000
    O20      O        0.48560    0.23560    0.37550    1.000
    O21      O        0.76730    0.28400    0.36690    1.000
    O22      O        0.81220    0.29120    0.45430    1.000
    O23      O        0.74730    0.55860    0.05290    1.000
    O24      O        0.79270    0.49100    0.12660    1.000
    O25      O        0.68870    0.36240    0.96250    1.000
    O26      O        0.85960    0.40540    0.00090    1.000
    O27      O        0.63480    0.14440    0.05480    1.000
    O28      O        0.75000    0.23560    0.12450    1.000
    O29      O        0.51670    0.28400    0.13310    1.000
    O30      O        0.47900    0.29120    0.04570    1.000
    O31      O        0.81130    0.55860    0.44710    1.000
    O32      O        0.69830    0.49100    0.37340    1.000
    H65      H        0.52520    0.51420    0.97410    1.000
    H66      H        0.60480    0.46820    0.96940    1.000
    H67      H        0.69740    0.64780    0.94410    1.000
    H68      H        0.68510    0.57100    0.89010    1.000
    H69      H        0.60110    0.62240    0.89700    1.000
    H70      H        0.43470    0.34020    0.93750    1.000
    H71      H        0.43600    0.43040    0.89340    1.000
    H72      H        0.52430    0.38420    0.88580    1.000
    C113     C        0.64310    0.59140    0.91750    1.000
    C114     C        0.48340    0.40520    0.91360    1.000
    N17      N        0.56420    0.49400    0.94870    1.000
    H73      H        0.47480    0.48580    0.47410    1.000
    H74      H        0.39520    0.53180    0.46940    1.000
    H75      H        0.30260    0.35220    0.44410    1.000
    H76      H        0.31490    0.42900    0.39010    1.000
    H77      H        0.39890    0.37760    0.39700    1.000
    H78      H        0.56530    0.65980    0.43750    1.000
    H79      H        0.56400    0.56960    0.39340    1.000
    H80      H        0.47570    0.61580    0.38580    1.000
    C115     C        0.35690    0.40860    0.41750    1.000
    C116     C        0.51660    0.59480    0.41360    1.000
    N18      N        0.43580    0.50600    0.44870    1.000
    H81      H        0.98900    0.51420    0.52590    1.000
    H82      H        0.86340    0.46820    0.53060    1.000
    H83      H        0.95040    0.64780    0.55590    1.000
    H84      H        0.88590    0.57100    0.60990    1.000
    H85      H        0.02130    0.62240    0.60300    1.000
    H86      H        0.90550    0.34020    0.56250    1.000
    H87      H        0.99440    0.43040    0.60660    1.000
    H88      H        0.85990    0.38420    0.61420    1.000
    C117     C        0.94830    0.59140    0.58250    1.000
    C118     C        0.92180    0.40520    0.58640    1.000
    N19      N        0.92980    0.49400    0.55130    1.000
    H89      H        0.01100    0.48580    0.02590    1.000
    H90      H        0.13660    0.53180    0.03060    1.000
    H91      H        0.04960    0.35220    0.05590    1.000
    H92      H        0.11410    0.42900    0.10990    1.000
    H93      H        0.97870    0.37760    0.10300    1.000
    H94      H        0.09450    0.65980    0.06250    1.000
    H95      H        0.00560    0.56960    0.10660    1.000
    H96      H        0.14010    0.61580    0.11420    1.000
    C119     C        0.05170    0.40860    0.08250    1.000
    C120     C        0.07820    0.59480    0.08640    1.000
    N20      N        0.07020    0.50600    0.05130    1.000
