# CIF file generated by openbabel 3.1.0, see https://openbabel.org
data_I
_chemical_name_common 'image0'
_cell_length_a 15.5259
_cell_length_b 11.867
_cell_length_c 9.4129
_cell_angle_alpha 90
_cell_angle_beta 113.089
_cell_angle_gamma 90
_space_group_name_H-M_alt 'P 1'
_space_group_name_Hall 'P 1'
loop_
    _symmetry_equiv_pos_as_xyz
    x,y,z
loop_
    _atom_site_label
    _atom_site_type_symbol
    _atom_site_fract_x
    _atom_site_fract_y
    _atom_site_fract_z
    _atom_site_occupancy
    O1       O        0.78430    0.87420    0.86860    1.000
    O2       O        0.92320    0.87910    0.84850    1.000
    O3       O        0.75370    0.61650    0.85280    1.000
    O4       O        0.60770    0.67180    0.71720    1.000
    H1       H        0.92160    0.05710    0.18410    1.000
    C1       C        0.82180    0.82700    0.53150    1.000
    H2       H        0.87050    0.87840    0.55280    1.000
    C2       C        0.79490    0.79350    0.64930    1.000
    C3       C        0.72280    0.71520    0.61890    1.000
    C4       C        0.83800    0.85350    0.80280    1.000
    C5       C        0.69340    0.66610    0.74140    1.000
    O5       O        0.28430    0.37420    0.86860    1.000
    O6       O        0.42320    0.37910    0.84850    1.000
    O7       O        0.25370    0.11650    0.85280    1.000
    O8       O        0.10770    0.17180    0.71720    1.000
    H3       H        0.42160    0.55710    0.18410    1.000
    C6       C        0.32180    0.32700    0.53150    1.000
    H4       H        0.37050    0.37840    0.55280    1.000
    C7       C        0.29490    0.29350    0.64930    1.000
    C8       C        0.22280    0.21520    0.61890    1.000
    C9       C        0.33800    0.35350    0.80280    1.000
    C10      C        0.19340    0.16610    0.74140    1.000
    O9       O        0.21570    0.87420    0.13140    1.000
    O10      O        0.07680    0.87910    0.15150    1.000
    O11      O        0.24630    0.61650    0.14720    1.000
    O12      O        0.39230    0.67180    0.28280    1.000
    H5       H        0.07840    0.05710    0.81590    1.000
    C11      C        0.17820    0.82700    0.46850    1.000
    H6       H        0.12950    0.87840    0.44720    1.000
    C12      C        0.20510    0.79350    0.35070    1.000
    C13      C        0.27720    0.71520    0.38110    1.000
    C14      C        0.16200    0.85350    0.19720    1.000
    C15      C        0.30660    0.66610    0.25860    1.000
    O13      O        0.71570    0.37420    0.13140    1.000
    O14      O        0.57680    0.37910    0.15150    1.000
    O15      O        0.74630    0.11650    0.14720    1.000
    O16      O        0.89230    0.17180    0.28280    1.000
    H7       H        0.57840    0.55710    0.81590    1.000
    C16      C        0.67820    0.32700    0.46850    1.000
    H8       H        0.62950    0.37840    0.44720    1.000
    C17      C        0.70510    0.29350    0.35070    1.000
    C18      C        0.77720    0.21520    0.38110    1.000
    C19      C        0.66200    0.35350    0.19720    1.000
    C20      C        0.80660    0.16610    0.25860    1.000
    O17      O        0.21570    0.12580    0.13140    1.000
    O18      O        0.07680    0.12090    0.15150    1.000
    O19      O        0.24630    0.38350    0.14720    1.000
    O20      O        0.39230    0.32820    0.28280    1.000
    H9       H        0.07840    0.94290    0.81590    1.000
    C21      C        0.17820    0.17300    0.46850    1.000
    H10      H        0.12950    0.12160    0.44720    1.000
    C22      C        0.20510    0.20650    0.35070    1.000
    C23      C        0.27720    0.28480    0.38110    1.000
    C24      C        0.16200    0.14650    0.19720    1.000
    C25      C        0.30660    0.33390    0.25860    1.000
    O21      O        0.71570    0.62580    0.13140    1.000
    O22      O        0.57680    0.62090    0.15150    1.000
    O23      O        0.74630    0.88350    0.14720    1.000
    O24      O        0.89230    0.82820    0.28280    1.000
    H11      H        0.57840    0.44290    0.81590    1.000
    C26      C        0.67820    0.67300    0.46850    1.000
    H12      H        0.62950    0.62160    0.44720    1.000
    C27      C        0.70510    0.70650    0.35070    1.000
    C28      C        0.77720    0.78480    0.38110    1.000
    C29      C        0.66200    0.64650    0.19720    1.000
    C30      C        0.80660    0.83390    0.25860    1.000
    O25      O        0.78430    0.12580    0.86860    1.000
    O26      O        0.92320    0.12090    0.84850    1.000
    O27      O        0.75370    0.38350    0.85280    1.000
    O28      O        0.60770    0.32820    0.71720    1.000
    H13      H        0.92160    0.94290    0.18410    1.000
    C31      C        0.82180    0.17300    0.53150    1.000
    H14      H        0.87050    0.12160    0.55280    1.000
    C32      C        0.79490    0.20650    0.64930    1.000
    C33      C        0.72280    0.28480    0.61890    1.000
    C34      C        0.83800    0.14650    0.80280    1.000
    C35      C        0.69340    0.33390    0.74140    1.000
    O29      O        0.28430    0.62580    0.86860    1.000
    O30      O        0.42320    0.62090    0.84850    1.000
    O31      O        0.25370    0.88350    0.85280    1.000
    O32      O        0.10770    0.82820    0.71720    1.000
    H15      H        0.42160    0.44290    0.18410    1.000
    C36      C        0.32180    0.67300    0.53150    1.000
    H16      H        0.37050    0.62160    0.55280    1.000
    C37      C        0.29490    0.70650    0.64930    1.000
    C38      C        0.22280    0.78480    0.61890    1.000
    C39      C        0.33800    0.64650    0.80280    1.000
    C40      C        0.19340    0.83390    0.74140    1.000
    Ni1      Ni       0.77296    0.00000    0.00569    1.000
    O33      O        0.91690    0.00000    0.13000    1.000
    Ni2      Ni       0.27296    0.50000    0.00569    1.000
    O34      O        0.41690    0.50000    0.13000    1.000
    Ni3      Ni       0.22704    0.00000    0.99431    1.000
    O35      O        0.08310    0.00000    0.87000    1.000
    Ni4      Ni       0.72704    0.50000    0.99431    1.000
    O36      O        0.58310    0.50000    0.87000    1.000
    Ni5      Ni       0.00000    0.00000    0.00000    1.000
    Ni6      Ni       0.50000    0.50000    0.00000    1.000
