# CIF file generated by openbabel 3.1.0, see https://openbabel.org
data_I
_chemical_name_common 'image0'
_cell_length_a 11.6193
_cell_length_b 5.5667
_cell_length_c 22.9312
_cell_angle_alpha 90
_cell_angle_beta 100.897
_cell_angle_gamma 90
_space_group_name_H-M_alt 'P 1'
_space_group_name_Hall 'P 1'
loop_
    _symmetry_equiv_pos_as_xyz
    x,y,z
loop_
    _atom_site_label
    _atom_site_type_symbol
    _atom_site_fract_x
    _atom_site_fract_y
    _atom_site_fract_z
    _atom_site_occupancy
    C1       C        0.49320    0.25860    0.26200    1.000
    C2       C        0.39980    0.21110    0.29910    1.000
    C3       C        0.31210    0.37890    0.30010    1.000
    H1       H        0.31420    0.52870    0.28040    1.000
    C4       C        0.22080    0.32820    0.32990    1.000
    H2       H        0.15970    0.44130    0.33040    1.000
    C5       C        0.22090    0.10960    0.35890    1.000
    C6       C        0.31090    0.94130    0.36030    1.000
    H3       H        0.31100    0.79580    0.38200    1.000
    C7       C        0.40020    0.99120    0.32930    1.000
    H4       H        0.46090    0.87770    0.32860    1.000
    C8       C        0.14900    0.11190    0.47020    1.000
    C9       C        0.11940    0.33400    0.49010    1.000
    H5       H        0.08030    0.45020    0.46300    1.000
    C10      C        0.14820    0.38370    0.55080    1.000
    H6       H        0.12980    0.53610    0.56520    1.000
    C11      C        0.20360    0.21140    0.59000    1.000
    C12      C        0.23670    0.99050    0.56930    1.000
    H7       H        0.27750    0.87590    0.59620    1.000
    C13      C        0.20950    0.93980    0.50880    1.000
    H8       H        0.23170    0.79100    0.49390    1.000
    C14      C        0.22750    0.26240    0.65570    1.000
    O1       O        0.51240    0.47550    0.25221    1.000
    O2       O        0.54090    0.08080    0.24372    1.000
    O3       O        0.00540    0.19580    0.37124    1.000
    O4       O        0.08660    0.77960    0.39054    1.000
    O5       O        0.23710    0.47680    0.67265    1.000
    O6       O        0.24060    0.08500    0.69066    1.000
    S1       S        0.10323    0.03640    0.39414    1.000
    Ca1      Ca       0.63720    0.74331    0.22117    1.000
    C15      C        0.00680    0.75860    0.23800    1.000
    C16      C        0.10020    0.71110    0.20090    1.000
    C17      C        0.18790    0.87890    0.19990    1.000
    H9       H        0.18580    0.02870    0.21960    1.000
    C18      C        0.27920    0.82820    0.17010    1.000
    H10      H        0.34030    0.94130    0.16960    1.000
    C19      C        0.27910    0.60960    0.14110    1.000
    C20      C        0.18910    0.44130    0.13970    1.000
    H11      H        0.18900    0.29580    0.11800    1.000
    C21      C        0.09980    0.49120    0.17070    1.000
    H12      H        0.03910    0.37770    0.17140    1.000
    C22      C        0.35100    0.61190    0.02980    1.000
    C23      C        0.38060    0.83400    0.00990    1.000
    H13      H        0.41970    0.95020    0.03700    1.000
    C24      C        0.35180    0.88370    0.94920    1.000
    H14      H        0.37020    0.03610    0.93480    1.000
    C25      C        0.29640    0.71140    0.91000    1.000
    C26      C        0.26330    0.49050    0.93070    1.000
    H15      H        0.22250    0.37590    0.90380    1.000
    C27      C        0.29050    0.43980    0.99120    1.000
    H16      H        0.26830    0.29100    0.00610    1.000
    C28      C        0.27250    0.76240    0.84430    1.000
    O7       O        0.98760    0.97550    0.24779    1.000
    O8       O        0.95910    0.58080    0.25628    1.000
    O9       O        0.49460    0.69580    0.12876    1.000
    O10      O        0.41340    0.27960    0.10946    1.000
    O11      O        0.26290    0.97680    0.82735    1.000
    O12      O        0.25940    0.58500    0.80934    1.000
    S2       S        0.39677    0.53640    0.10586    1.000
    Ca2      Ca       0.86280    0.24331    0.27883    1.000
    C29      C        0.50680    0.74140    0.73800    1.000
    C30      C        0.60020    0.78890    0.70090    1.000
    C31      C        0.68790    0.62110    0.69990    1.000
    H17      H        0.68580    0.47130    0.71960    1.000
    C32      C        0.77920    0.67180    0.67010    1.000
    H18      H        0.84030    0.55870    0.66960    1.000
    C33      C        0.77910    0.89040    0.64110    1.000
    C34      C        0.68910    0.05870    0.63970    1.000
    H19      H        0.68900    0.20420    0.61800    1.000
    C35      C        0.59980    0.00880    0.67070    1.000
    H20      H        0.53910    0.12230    0.67140    1.000
    C36      C        0.85100    0.88810    0.52980    1.000
    C37      C        0.88060    0.66600    0.50990    1.000
    H21      H        0.91970    0.54980    0.53700    1.000
    C38      C        0.85180    0.61630    0.44920    1.000
    H22      H        0.87020    0.46390    0.43480    1.000
    C39      C        0.79640    0.78860    0.41000    1.000
    C40      C        0.76330    0.00950    0.43070    1.000
    H23      H        0.72250    0.12410    0.40380    1.000
    C41      C        0.79050    0.06020    0.49120    1.000
    H24      H        0.76830    0.20900    0.50610    1.000
    C42      C        0.77250    0.73760    0.34430    1.000
    O13      O        0.48760    0.52450    0.74779    1.000
    O14      O        0.45910    0.91920    0.75628    1.000
    O15      O        0.99460    0.80420    0.62876    1.000
    O16      O        0.91340    0.22040    0.60946    1.000
    O17      O        0.76290    0.52320    0.32735    1.000
    O18      O        0.75940    0.91500    0.30934    1.000
    S3       S        0.89677    0.96360    0.60586    1.000
    Ca3      Ca       0.36280    0.25669    0.77883    1.000
    C43      C        0.99320    0.24140    0.76200    1.000
    C44      C        0.89980    0.28890    0.79910    1.000
    C45      C        0.81210    0.12110    0.80010    1.000
    H25      H        0.81420    0.97130    0.78040    1.000
    C46      C        0.72080    0.17180    0.82990    1.000
    H26      H        0.65970    0.05870    0.83040    1.000
    C47      C        0.72090    0.39040    0.85890    1.000
    C48      C        0.81090    0.55870    0.86030    1.000
    H27      H        0.81100    0.70420    0.88200    1.000
    C49      C        0.90020    0.50880    0.82930    1.000
    H28      H        0.96090    0.62230    0.82860    1.000
    C50      C        0.64900    0.38810    0.97020    1.000
    C51      C        0.61940    0.16600    0.99010    1.000
    H29      H        0.58030    0.04980    0.96300    1.000
    C52      C        0.64820    0.11630    0.05080    1.000
    H30      H        0.62980    0.96390    0.06520    1.000
    C53      C        0.70360    0.28860    0.09000    1.000
    C54      C        0.73670    0.50950    0.06930    1.000
    H31      H        0.77750    0.62410    0.09620    1.000
    C55      C        0.70950    0.56020    0.00880    1.000
    H32      H        0.73170    0.70900    0.99390    1.000
    C56      C        0.72750    0.23760    0.15570    1.000
    O19      O        0.01240    0.02450    0.75221    1.000
    O20      O        0.04090    0.41920    0.74372    1.000
    O21      O        0.50540    0.30420    0.87124    1.000
    O22      O        0.58660    0.72040    0.89054    1.000
    O23      O        0.73710    0.02320    0.17265    1.000
    O24      O        0.74060    0.41500    0.19066    1.000
    S4       S        0.60323    0.46360    0.89414    1.000
    Ca4      Ca       0.13720    0.75669    0.72117    1.000
