# CIF file generated by openbabel 3.1.0, see https://openbabel.org
data_I
_chemical_name_common 'image0'
_cell_length_a 10.819
_cell_length_b 16.73
_cell_length_c 17.37
_cell_angle_alpha 114.65
_cell_angle_beta 93.04
_cell_angle_gamma 99.62
_space_group_name_H-M_alt 'P 1'
_space_group_name_Hall 'P 1'
loop_
    _symmetry_equiv_pos_as_xyz
    x,y,z
loop_
    _atom_site_label
    _atom_site_type_symbol
    _atom_site_fract_x
    _atom_site_fract_y
    _atom_site_fract_z
    _atom_site_occupancy
    O1       O        0.81760    0.99050    0.04920    1.000
    O2       O        0.46290    0.23980    0.03940    1.000
    O3       O        0.30300    0.17930    0.08980    1.000
    C1       C        0.41430    0.18930    0.07240    1.000
    C2       C        0.49310    0.13340    0.09030    1.000
    O4       O        0.92940    0.92280    0.88610    1.000
    Ce1      Ce       0.08282    0.14097    0.01280    1.000
    Ce2      Ce       0.37144    0.34357    0.99600    1.000
    Ce3      Ce       0.43799    0.86573    0.40561    1.000
    C3       C        0.26070    0.97230    0.64250    1.000
    O5       O        0.99360    0.25130    0.96680    1.000
    O6       O        0.61190    0.13760    0.06680    1.000
    O7       O        0.84110    0.35870    0.94650    1.000
    O8       O        0.85410    0.12260    0.04050    1.000
    O9       O        0.22630    0.16520    0.91390    1.000
    O10      O        0.59980    0.37390    0.97230    1.000
    O11      O        0.15480    0.32610    0.93070    1.000
    O12      O        0.93660    0.05010    0.87380    1.000
    O13      O        0.76140    0.96290    0.73130    1.000
    O14      O        0.37610    0.21130    0.85170    1.000
    O15      O        0.22280    0.33040    0.09300    1.000
    O16      O        0.38350    0.00180    0.54570    1.000
    O17      O        0.29780    0.48240    0.23850    1.000
    O18      O        0.62560    0.49580    0.94670    1.000
    O19      O        0.07730    0.27500    0.15330    1.000
    C4       C        0.19280    0.42080    0.23320    1.000
    C5       C        0.66340    0.43050    0.95090    1.000
    O20      O        0.30690    0.05740    0.70390    1.000
    C6       C        0.24940    0.06540    0.77390    1.000
    C7       C        0.78830    0.06140    0.05410    1.000
    C8       C        0.96240    0.36350    0.92340    1.000
    C9       C        0.66230    0.07350    0.08050    1.000
    C10      C        0.04210    0.30870    0.94170    1.000
    O21      O        0.62820    0.02210    0.63860    1.000
    O22      O        0.27230    0.86450    0.50690    1.000
    C11      C        0.16270    0.33590    0.15450    1.000
    C12      C        0.79020    0.42000    0.92890    1.000
    O23      O        0.55490    0.88020    0.53770    1.000
    C13      C        0.16900    0.98800    0.75790    1.000
    H1       H        0.11850    0.97650    0.79540    1.000
    C14      C        0.28530    0.15220    0.85130    1.000
    O24      O        0.39360    0.70940    0.38440    1.000
    C15      C        0.98370    0.42460    0.89110    1.000
    H2       H        0.05700    0.43980    0.87030    1.000
    C16      C        0.89880    0.96670    0.84810    1.000
    C17      C        0.87350    0.46130    0.89490    1.000
    H3       H        0.86120    0.50510    0.87730    1.000
    C18      C        0.61950    0.93830    0.60620    1.000
    C19      C        0.46800    0.07000    0.11890    1.000
    H4       H        0.39410    0.05430    0.13900    1.000
    C20      C        0.69210    0.90230    0.65630    1.000
    C21      C        0.81660    0.91530    0.76520    1.000
    C22      C        0.17620    0.92800    0.67400    1.000
    H5       H        0.13140    0.86890    0.64500    1.000
    C23      C        0.30950    0.94480    0.56030    1.000
    C24      C        0.78320    0.82650    0.71370    1.000
    H6       H        0.80830    0.78010    0.72260    1.000
    C25      C        0.57840    0.03100    0.11230    1.000
    H7       H        0.58940    0.98510    0.12720    1.000
    C26      C        0.20230    0.54600    0.35000    1.000
    H8       H        0.18250    0.58760    0.40080    1.000
    O25      O        0.49810    0.62010    0.28800    1.000
    C27      C        0.30020    0.55860    0.31070    1.000
    C28      C        0.70130    0.81860    0.64310    1.000
    H9       H        0.66160    0.76550    0.59650    1.000
    C29      C        0.13380    0.45750    0.30030    1.000
    H10      H        0.06050    0.42980    0.31230    1.000
    C30      C        0.40660    0.63480    0.32900    1.000
    K1       K        0.73215    0.25778    0.02000    1.000
    O26      O        0.18240    0.00950    0.95080    1.000
    O27      O        0.53710    0.76020    0.96060    1.000
    O28      O        0.69700    0.82070    0.91020    1.000
    C31      C        0.58570    0.81070    0.92760    1.000
    C32      C        0.50690    0.86660    0.90970    1.000
    O29      O        0.07060    0.07720    0.11390    1.000
    Ce4      Ce       0.91718    0.85903    0.98720    1.000
    Ce5      Ce       0.62856    0.65643    0.00400    1.000
    Ce6      Ce       0.56201    0.13427    0.59439    1.000
    C33      C        0.73930    0.02770    0.35750    1.000
    O30      O        0.00640    0.74870    0.03320    1.000
    O31      O        0.38810    0.86240    0.93320    1.000
    O32      O        0.15890    0.64130    0.05350    1.000
    O33      O        0.14590    0.87740    0.95950    1.000
    O34      O        0.77370    0.83480    0.08610    1.000
    O35      O        0.40020    0.62610    0.02770    1.000
    O36      O        0.84520    0.67390    0.06930    1.000
    O37      O        0.06340    0.94990    0.12620    1.000
    O38      O        0.23860    0.03710    0.26870    1.000
    O39      O        0.62390    0.78870    0.14830    1.000
    O40      O        0.77720    0.66960    0.90700    1.000
    O41      O        0.61650    0.99820    0.45430    1.000
    O42      O        0.70220    0.51760    0.76150    1.000
    O43      O        0.37440    0.50420    0.05330    1.000
    O44      O        0.92270    0.72500    0.84670    1.000
    C34      C        0.80720    0.57920    0.76680    1.000
    C35      C        0.33660    0.56950    0.04910    1.000
    O45      O        0.69310    0.94260    0.29610    1.000
    C36      C        0.75060    0.93460    0.22610    1.000
    C37      C        0.21170    0.93860    0.94590    1.000
    C38      C        0.03760    0.63650    0.07660    1.000
    C39      C        0.33770    0.92650    0.91950    1.000
    C40      C        0.95790    0.69130    0.05830    1.000
    O46      O        0.37180    0.97790    0.36140    1.000
    O47      O        0.72770    0.13550    0.49310    1.000
    C41      C        0.83730    0.66410    0.84550    1.000
    C42      C        0.20980    0.58000    0.07110    1.000
    O48      O        0.44510    0.11980    0.46230    1.000
    C43      C        0.83100    0.01200    0.24210    1.000
    H11      H        0.88150    0.02350    0.20460    1.000
    C44      C        0.71470    0.84780    0.14870    1.000
    O49      O        0.60640    0.29060    0.61560    1.000
    C45      C        0.01630    0.57540    0.10890    1.000
    H12      H        0.94300    0.56020    0.12970    1.000
    C46      C        0.10120    0.03330    0.15190    1.000
    C47      C        0.12650    0.53870    0.10510    1.000
    H13      H        0.13880    0.49490    0.12270    1.000
    C48      C        0.38050    0.06170    0.39380    1.000
    C49      C        0.53200    0.93000    0.88110    1.000
    H14      H        0.60590    0.94570    0.86100    1.000
    C50      C        0.30790    0.09770    0.34370    1.000
    C51      C        0.18340    0.08470    0.23480    1.000
    C52      C        0.82380    0.07200    0.32600    1.000
    H15      H        0.86860    0.13110    0.35500    1.000
    C53      C        0.69050    0.05520    0.43970    1.000
    C54      C        0.21680    0.17350    0.28630    1.000
    H16      H        0.19170    0.21990    0.27740    1.000
    C55      C        0.42160    0.96900    0.88770    1.000
    H17      H        0.41060    0.01490    0.87280    1.000
    C56      C        0.79770    0.45400    0.65000    1.000
    H18      H        0.81750    0.41240    0.59920    1.000
    O50      O        0.50190    0.37990    0.71200    1.000
    C57      C        0.69980    0.44140    0.68930    1.000
    C58      C        0.29870    0.18140    0.35690    1.000
    H19      H        0.33840    0.23450    0.40350    1.000
    C59      C        0.86620    0.54250    0.69970    1.000
    H20      H        0.93950    0.57020    0.68770    1.000
    C60      C        0.59340    0.36520    0.67100    1.000
    K2       K        0.26785    0.74222    0.98000    1.000
