# CIF file generated by openbabel 3.1.0, see https://openbabel.org
data_I
_chemical_name_common 'image0'
_cell_length_a 19.623
_cell_length_b 19.623
_cell_length_c 19.147
_cell_angle_alpha 90
_cell_angle_beta 90
_cell_angle_gamma 90
_space_group_name_H-M_alt 'P 1'
_space_group_name_Hall 'P 1'
loop_
    _symmetry_equiv_pos_as_xyz
    x,y,z
loop_
    _atom_site_label
    _atom_site_type_symbol
    _atom_site_fract_x
    _atom_site_fract_y
    _atom_site_fract_z
    _atom_site_occupancy
    Fe1      Fe       0.39624    0.52176    0.02003    1.000
    N1       N        0.38293    0.41754    0.07140    1.000
    N2       N        0.32919    0.53958    0.10716    1.000
    N3       N        0.27050    0.49598    0.19840    1.000
    H1       H        0.25390    0.46710    0.22760    1.000
    N4       N        0.26240    0.56483    0.19883    1.000
    N5       N        0.33500    0.69682    0.08489    1.000
    N6       N        0.27632    0.70140    0.18493    1.000
    N7       N        0.29098    0.76686    0.16637    1.000
    C1       C        0.41220    0.35800    0.05320    1.000
    H2       H        0.44560    0.35690    0.01870    1.000
    C2       C        0.39250    0.29950    0.08550    1.000
    H3       H        0.41240    0.25880    0.07120    1.000
    C3       C        0.34730    0.29710    0.13540    1.000
    H4       H        0.33630    0.25630    0.15750    1.000
    C4       C        0.31760    0.35550    0.15350    1.000
    H5       H        0.28350    0.35540    0.18710    1.000
    C5       C        0.33690    0.41680    0.12280    1.000
    C6       C        0.30990    0.48270    0.14290    1.000
    C7       C        0.29816    0.58853    0.14440    1.000
    C8       C        0.30315    0.66218    0.13532    1.000
    C9       C        0.32490    0.76120    0.10680    1.000
    H6       H        0.34040    0.79890    0.08200    1.000
    Fe2      Fe       0.89624    0.02176    0.52003    1.000
    N8       N        0.88293    0.91754    0.57140    1.000
    N9       N        0.82919    0.03958    0.60716    1.000
    N10      N        0.77050    0.99598    0.69840    1.000
    H7       H        0.75390    0.96710    0.72760    1.000
    N11      N        0.76240    0.06483    0.69883    1.000
    N12      N        0.83500    0.19682    0.58489    1.000
    N13      N        0.77632    0.20140    0.68493    1.000
    N14      N        0.79098    0.26686    0.66637    1.000
    C10      C        0.91220    0.85800    0.55320    1.000
    H8       H        0.94560    0.85690    0.51870    1.000
    C11      C        0.89250    0.79950    0.58550    1.000
    H9       H        0.91240    0.75880    0.57120    1.000
    C12      C        0.84730    0.79710    0.63540    1.000
    H10      H        0.83630    0.75630    0.65750    1.000
    C13      C        0.81760    0.85550    0.65350    1.000
    H11      H        0.78350    0.85540    0.68710    1.000
    C14      C        0.83690    0.91680    0.62280    1.000
    C15      C        0.80990    0.98270    0.64290    1.000
    C16      C        0.79816    0.08853    0.64440    1.000
    C17      C        0.80315    0.16218    0.63532    1.000
    C18      C        0.82490    0.26120    0.60680    1.000
    H12      H        0.84040    0.29890    0.58200    1.000
    Fe3      Fe       0.10376    0.47824    0.52003    1.000
    N15      N        0.11707    0.58246    0.57140    1.000
    N16      N        0.17081    0.46042    0.60716    1.000
    N17      N        0.22950    0.50402    0.69840    1.000
    H13      H        0.24610    0.53290    0.72760    1.000
    N18      N        0.23760    0.43517    0.69883    1.000
    N19      N        0.16500    0.30318    0.58489    1.000
    N20      N        0.22368    0.29860    0.68493    1.000
    N21      N        0.20902    0.23314    0.66637    1.000
    C19      C        0.08780    0.64200    0.55320    1.000
    H14      H        0.05440    0.64310    0.51870    1.000
    C20      C        0.10750    0.70050    0.58550    1.000
    H15      H        0.08760    0.74120    0.57120    1.000
    C21      C        0.15270    0.70290    0.63540    1.000
    H16      H        0.16370    0.74370    0.65750    1.000
    C22      C        0.18240    0.64450    0.65350    1.000
    H17      H        0.21650    0.64460    0.68710    1.000
    C23      C        0.16310    0.58320    0.62280    1.000
    C24      C        0.19010    0.51730    0.64290    1.000
    C25      C        0.20184    0.41147    0.64440    1.000
    C26      C        0.19685    0.33782    0.63532    1.000
    C27      C        0.17510    0.23880    0.60680    1.000
    H18      H        0.15960    0.20110    0.58200    1.000
    Fe4      Fe       0.60376    0.97824    0.02003    1.000
    N22      N        0.61707    0.08246    0.07140    1.000
    N23      N        0.67081    0.96042    0.10716    1.000
    N24      N        0.72950    0.00402    0.19840    1.000
    H19      H        0.74610    0.03290    0.22760    1.000
    N25      N        0.73760    0.93517    0.19883    1.000
    N26      N        0.66500    0.80318    0.08489    1.000
    N27      N        0.72368    0.79860    0.18493    1.000
    N28      N        0.70902    0.73314    0.16637    1.000
    C28      C        0.58780    0.14200    0.05320    1.000
    H20      H        0.55440    0.14310    0.01870    1.000
    C29      C        0.60750    0.20050    0.08550    1.000
    H21      H        0.58760    0.24120    0.07120    1.000
    C30      C        0.65270    0.20290    0.13540    1.000
    H22      H        0.66370    0.24370    0.15750    1.000
    C31      C        0.68240    0.14450    0.15350    1.000
    H23      H        0.71650    0.14460    0.18710    1.000
    C32      C        0.66310    0.08320    0.12280    1.000
    C33      C        0.69010    0.01730    0.14290    1.000
    C34      C        0.70184    0.91147    0.14440    1.000
    C35      C        0.69685    0.83782    0.13532    1.000
    C36      C        0.67510    0.73880    0.10680    1.000
    H24      H        0.65960    0.70110    0.08200    1.000
    Fe5      Fe       0.22824    0.64624    0.27003    1.000
    N29      N        0.33246    0.63293    0.32140    1.000
    N30      N        0.21042    0.57919    0.35716    1.000
    N31      N        0.25402    0.52050    0.44840    1.000
    H25      H        0.28290    0.50390    0.47760    1.000
    N32      N        0.18517    0.51240    0.44883    1.000
    N33      N        0.05318    0.58500    0.33489    1.000
    N34      N        0.04860    0.52632    0.43493    1.000
    N35      N        0.98314    0.54098    0.41637    1.000
    C37      C        0.39200    0.66220    0.30320    1.000
    H26      H        0.39310    0.69560    0.26870    1.000
    C38      C        0.45050    0.64250    0.33550    1.000
    H27      H        0.49120    0.66240    0.32120    1.000
    C39      C        0.45290    0.59730    0.38540    1.000
    H28      H        0.49370    0.58630    0.40750    1.000
    C40      C        0.39450    0.56760    0.40350    1.000
    H29      H        0.39460    0.53350    0.43710    1.000
    C41      C        0.33320    0.58690    0.37280    1.000
    C42      C        0.26730    0.55990    0.39290    1.000
    C43      C        0.16147    0.54816    0.39440    1.000
    C44      C        0.08782    0.55315    0.38532    1.000
    C45      C        0.98880    0.57490    0.35680    1.000
    H30      H        0.95110    0.59040    0.33200    1.000
    Fe6      Fe       0.72824    0.14624    0.77003    1.000
    N36      N        0.83246    0.13293    0.82140    1.000
    N37      N        0.71042    0.07919    0.85716    1.000
    N38      N        0.75402    0.02050    0.94840    1.000
    H31      H        0.78290    0.00390    0.97760    1.000
    N39      N        0.68517    0.01240    0.94883    1.000
    N40      N        0.55318    0.08500    0.83489    1.000
    N41      N        0.54860    0.02632    0.93493    1.000
    N42      N        0.48314    0.04098    0.91637    1.000
    C46      C        0.89200    0.16220    0.80320    1.000
    H32      H        0.89310    0.19560    0.76870    1.000
    C47      C        0.95050    0.14250    0.83550    1.000
    H33      H        0.99120    0.16240    0.82120    1.000
    C48      C        0.95290    0.09730    0.88540    1.000
    H34      H        0.99370    0.08630    0.90750    1.000
    C49      C        0.89450    0.06760    0.90350    1.000
    H35      H        0.89460    0.03350    0.93710    1.000
    C50      C        0.83320    0.08690    0.87280    1.000
    C51      C        0.76730    0.05990    0.89290    1.000
    C52      C        0.66147    0.04816    0.89440    1.000
    C53      C        0.58782    0.05315    0.88532    1.000
    C54      C        0.48880    0.07490    0.85680    1.000
    H36      H        0.45110    0.09040    0.83200    1.000
    Fe7      Fe       0.27176    0.35376    0.77003    1.000
    N43      N        0.16754    0.36707    0.82140    1.000
    N44      N        0.28958    0.42081    0.85716    1.000
    N45      N        0.24598    0.47950    0.94840    1.000
    H37      H        0.21710    0.49610    0.97760    1.000
    N46      N        0.31483    0.48760    0.94883    1.000
    N47      N        0.44682    0.41500    0.83489    1.000
    N48      N        0.45140    0.47368    0.93493    1.000
    N49      N        0.51686    0.45902    0.91637    1.000
    C55      C        0.10800    0.33780    0.80320    1.000
    H38      H        0.10690    0.30440    0.76870    1.000
    C56      C        0.04950    0.35750    0.83550    1.000
    H39      H        0.00880    0.33760    0.82120    1.000
    C57      C        0.04710    0.40270    0.88540    1.000
    H40      H        0.00630    0.41370    0.90750    1.000
    C58      C        0.10550    0.43240    0.90350    1.000
    H41      H        0.10540    0.46650    0.93710    1.000
    C59      C        0.16680    0.41310    0.87280    1.000
    C60      C        0.23270    0.44010    0.89290    1.000
    C61      C        0.33853    0.45184    0.89440    1.000
    C62      C        0.41218    0.44685    0.88532    1.000
    C63      C        0.51120    0.42510    0.85680    1.000
    H42      H        0.54890    0.40960    0.83200    1.000
    Fe8      Fe       0.77176    0.85376    0.27003    1.000
    N50      N        0.66754    0.86707    0.32140    1.000
    N51      N        0.78958    0.92081    0.35716    1.000
    N52      N        0.74598    0.97950    0.44840    1.000
    H43      H        0.71710    0.99610    0.47760    1.000
    N53      N        0.81483    0.98760    0.44883    1.000
    N54      N        0.94682    0.91500    0.33489    1.000
    N55      N        0.95140    0.97368    0.43493    1.000
    N56      N        0.01686    0.95902    0.41637    1.000
    C64      C        0.60800    0.83780    0.30320    1.000
    H44      H        0.60690    0.80440    0.26870    1.000
    C65      C        0.54950    0.85750    0.33550    1.000
    H45      H        0.50880    0.83760    0.32120    1.000
    C66      C        0.54710    0.90270    0.38540    1.000
    H46      H        0.50630    0.91370    0.40750    1.000
    C67      C        0.60550    0.93240    0.40350    1.000
    H47      H        0.60540    0.96650    0.43710    1.000
    C68      C        0.66680    0.91310    0.37280    1.000
    C69      C        0.73270    0.94010    0.39290    1.000
    C70      C        0.83853    0.95184    0.39440    1.000
    C71      C        0.91218    0.94685    0.38532    1.000
    C72      C        0.01120    0.92510    0.35680    1.000
    H48      H        0.04890    0.90960    0.33200    1.000
    Fe9      Fe       0.60376    0.47824    0.97997    1.000
    N57      N        0.61707    0.58246    0.92860    1.000
    N58      N        0.67081    0.46042    0.89284    1.000
    N59      N        0.72950    0.50402    0.80160    1.000
    H49      H        0.74610    0.53290    0.77240    1.000
    N60      N        0.73760    0.43517    0.80117    1.000
    N61      N        0.66500    0.30318    0.91511    1.000
    N62      N        0.72368    0.29860    0.81507    1.000
    N63      N        0.70902    0.23314    0.83363    1.000
    C73      C        0.58780    0.64200    0.94680    1.000
    H50      H        0.55440    0.64310    0.98130    1.000
    C74      C        0.60750    0.70050    0.91450    1.000
    H51      H        0.58760    0.74120    0.92880    1.000
    C75      C        0.65270    0.70290    0.86460    1.000
    H52      H        0.66370    0.74370    0.84250    1.000
    C76      C        0.68240    0.64450    0.84650    1.000
    H53      H        0.71650    0.64460    0.81290    1.000
    C77      C        0.66310    0.58320    0.87720    1.000
    C78      C        0.69010    0.51730    0.85710    1.000
    C79      C        0.70184    0.41147    0.85560    1.000
    C80      C        0.69685    0.33782    0.86468    1.000
    C81      C        0.67510    0.23880    0.89320    1.000
    H54      H        0.65960    0.20110    0.91800    1.000
    Fe10     Fe       0.10376    0.97824    0.47997    1.000
    N64      N        0.11707    0.08246    0.42860    1.000
    N65      N        0.17081    0.96042    0.39284    1.000
    N66      N        0.22950    0.00402    0.30160    1.000
    H55      H        0.24610    0.03290    0.27240    1.000
    N67      N        0.23760    0.93517    0.30117    1.000
    N68      N        0.16500    0.80318    0.41511    1.000
    N69      N        0.22368    0.79860    0.31507    1.000
    N70      N        0.20902    0.73314    0.33363    1.000
    C82      C        0.08780    0.14200    0.44680    1.000
    H56      H        0.05440    0.14310    0.48130    1.000
    C83      C        0.10750    0.20050    0.41450    1.000
    H57      H        0.08760    0.24120    0.42880    1.000
    C84      C        0.15270    0.20290    0.36460    1.000
    H58      H        0.16370    0.24370    0.34250    1.000
    C85      C        0.18240    0.14450    0.34650    1.000
    H59      H        0.21650    0.14460    0.31290    1.000
    C86      C        0.16310    0.08320    0.37720    1.000
    C87      C        0.19010    0.01730    0.35710    1.000
    C88      C        0.20184    0.91147    0.35560    1.000
    C89      C        0.19685    0.83782    0.36468    1.000
    C90      C        0.17510    0.73880    0.39320    1.000
    H60      H        0.15960    0.70110    0.41800    1.000
    Fe11     Fe       0.89624    0.52176    0.47997    1.000
    N71      N        0.88293    0.41754    0.42860    1.000
    N72      N        0.82919    0.53958    0.39284    1.000
    N73      N        0.77050    0.49598    0.30160    1.000
    H61      H        0.75390    0.46710    0.27240    1.000
    N74      N        0.76240    0.56483    0.30117    1.000
    N75      N        0.83500    0.69682    0.41511    1.000
    N76      N        0.77632    0.70140    0.31507    1.000
    N77      N        0.79098    0.76686    0.33363    1.000
    C91      C        0.91220    0.35800    0.44680    1.000
    H62      H        0.94560    0.35690    0.48130    1.000
    C92      C        0.89250    0.29950    0.41450    1.000
    H63      H        0.91240    0.25880    0.42880    1.000
    C93      C        0.84730    0.29710    0.36460    1.000
    H64      H        0.83630    0.25630    0.34250    1.000
    C94      C        0.81760    0.35550    0.34650    1.000
    H65      H        0.78350    0.35540    0.31290    1.000
    C95      C        0.83690    0.41680    0.37720    1.000
    C96      C        0.80990    0.48270    0.35710    1.000
    C97      C        0.79816    0.58853    0.35560    1.000
    C98      C        0.80315    0.66218    0.36468    1.000
    C99      C        0.82490    0.76120    0.39320    1.000
    H66      H        0.84040    0.79890    0.41800    1.000
    Fe12     Fe       0.39624    0.02176    0.97997    1.000
    N78      N        0.38293    0.91754    0.92860    1.000
    N79      N        0.32919    0.03958    0.89284    1.000
    N80      N        0.27050    0.99598    0.80160    1.000
    H67      H        0.25390    0.96710    0.77240    1.000
    N81      N        0.26240    0.06483    0.80117    1.000
    N82      N        0.33500    0.19682    0.91511    1.000
    N83      N        0.27632    0.20140    0.81507    1.000
    N84      N        0.29098    0.26686    0.83363    1.000
    C100     C        0.41220    0.85800    0.94680    1.000
    H68      H        0.44560    0.85690    0.98130    1.000
    C101     C        0.39250    0.79950    0.91450    1.000
    H69      H        0.41240    0.75880    0.92880    1.000
    C102     C        0.34730    0.79710    0.86460    1.000
    H70      H        0.33630    0.75630    0.84250    1.000
    C103     C        0.31760    0.85550    0.84650    1.000
    H71      H        0.28350    0.85540    0.81290    1.000
    C104     C        0.33690    0.91680    0.87720    1.000
    C105     C        0.30990    0.98270    0.85710    1.000
    C106     C        0.29816    0.08853    0.85560    1.000
    C107     C        0.30315    0.16218    0.86468    1.000
    C108     C        0.32490    0.26120    0.89320    1.000
    H72      H        0.34040    0.29890    0.91800    1.000
    Fe13     Fe       0.77176    0.35376    0.72997    1.000
    N85      N        0.66754    0.36707    0.67860    1.000
    N86      N        0.78958    0.42081    0.64284    1.000
    N87      N        0.74598    0.47950    0.55160    1.000
    H73      H        0.71710    0.49610    0.52240    1.000
    N88      N        0.81483    0.48760    0.55117    1.000
    N89      N        0.94682    0.41500    0.66511    1.000
    N90      N        0.95140    0.47368    0.56507    1.000
    N91      N        0.01686    0.45902    0.58363    1.000
    C109     C        0.60800    0.33780    0.69680    1.000
    H74      H        0.60690    0.30440    0.73130    1.000
    C110     C        0.54950    0.35750    0.66450    1.000
    H75      H        0.50880    0.33760    0.67880    1.000
    C111     C        0.54710    0.40270    0.61460    1.000
    H76      H        0.50630    0.41370    0.59250    1.000
    C112     C        0.60550    0.43240    0.59650    1.000
    H77      H        0.60540    0.46650    0.56290    1.000
    C113     C        0.66680    0.41310    0.62720    1.000
    C114     C        0.73270    0.44010    0.60710    1.000
    C115     C        0.83853    0.45184    0.60560    1.000
    C116     C        0.91218    0.44685    0.61468    1.000
    C117     C        0.01120    0.42510    0.64320    1.000
    H78      H        0.04890    0.40960    0.66800    1.000
    Fe14     Fe       0.27176    0.85376    0.22997    1.000
    N92      N        0.16754    0.86707    0.17860    1.000
    N93      N        0.28958    0.92081    0.14284    1.000
    N94      N        0.24598    0.97950    0.05160    1.000
    H79      H        0.21710    0.99610    0.02240    1.000
    N95      N        0.31483    0.98760    0.05117    1.000
    N96      N        0.44682    0.91500    0.16511    1.000
    N97      N        0.45140    0.97368    0.06507    1.000
    N98      N        0.51686    0.95902    0.08363    1.000
    C118     C        0.10800    0.83780    0.19680    1.000
    H80      H        0.10690    0.80440    0.23130    1.000
    C119     C        0.04950    0.85750    0.16450    1.000
    H81      H        0.00880    0.83760    0.17880    1.000
    C120     C        0.04710    0.90270    0.11460    1.000
    H82      H        0.00630    0.91370    0.09250    1.000
    C121     C        0.10550    0.93240    0.09650    1.000
    H83      H        0.10540    0.96650    0.06290    1.000
    C122     C        0.16680    0.91310    0.12720    1.000
    C123     C        0.23270    0.94010    0.10710    1.000
    C124     C        0.33853    0.95184    0.10560    1.000
    C125     C        0.41218    0.94685    0.11468    1.000
    C126     C        0.51120    0.92510    0.14320    1.000
    H84      H        0.54890    0.90960    0.16800    1.000
    Fe15     Fe       0.72824    0.64624    0.22997    1.000
    N99      N        0.83246    0.63293    0.17860    1.000
    N100     N        0.71042    0.57919    0.14284    1.000
    N101     N        0.75402    0.52050    0.05160    1.000
    H85      H        0.78290    0.50390    0.02240    1.000
    N102     N        0.68517    0.51240    0.05117    1.000
    N103     N        0.55318    0.58500    0.16511    1.000
    N104     N        0.54860    0.52632    0.06507    1.000
    N105     N        0.48314    0.54098    0.08363    1.000
    C127     C        0.89200    0.66220    0.19680    1.000
    H86      H        0.89310    0.69560    0.23130    1.000
    C128     C        0.95050    0.64250    0.16450    1.000
    H87      H        0.99120    0.66240    0.17880    1.000
    C129     C        0.95290    0.59730    0.11460    1.000
    H88      H        0.99370    0.58630    0.09250    1.000
    C130     C        0.89450    0.56760    0.09650    1.000
    H89      H        0.89460    0.53350    0.06290    1.000
    C131     C        0.83320    0.58690    0.12720    1.000
    C132     C        0.76730    0.55990    0.10710    1.000
    C133     C        0.66147    0.54816    0.10560    1.000
    C134     C        0.58782    0.55315    0.11468    1.000
    C135     C        0.48880    0.57490    0.14320    1.000
    H90      H        0.45110    0.59040    0.16800    1.000
    Fe16     Fe       0.22824    0.14624    0.72997    1.000
    N106     N        0.33246    0.13293    0.67860    1.000
    N107     N        0.21042    0.07919    0.64284    1.000
    N108     N        0.25402    0.02050    0.55160    1.000
    H91      H        0.28290    0.00390    0.52240    1.000
    N109     N        0.18517    0.01240    0.55117    1.000
    N110     N        0.05318    0.08500    0.66511    1.000
    N111     N        0.04860    0.02632    0.56507    1.000
    N112     N        0.98314    0.04098    0.58363    1.000
    C136     C        0.39200    0.16220    0.69680    1.000
    H92      H        0.39310    0.19560    0.73130    1.000
    C137     C        0.45050    0.14250    0.66450    1.000
    H93      H        0.49120    0.16240    0.67880    1.000
    C138     C        0.45290    0.09730    0.61460    1.000
    H94      H        0.49370    0.08630    0.59250    1.000
    C139     C        0.39450    0.06760    0.59650    1.000
    H95      H        0.39460    0.03350    0.56290    1.000
    C140     C        0.33320    0.08690    0.62720    1.000
    C141     C        0.26730    0.05990    0.60710    1.000
    C142     C        0.16147    0.04816    0.60560    1.000
    C143     C        0.08782    0.05315    0.61468    1.000
    C144     C        0.98880    0.07490    0.64320    1.000
    H96      H        0.95110    0.09040    0.66800    1.000
