# CIF file generated by openbabel 3.1.0, see https://openbabel.org
data_I
_chemical_name_common 'image0'
_cell_length_a 8.8304
_cell_length_b 8.8257
_cell_length_c 27.644
_cell_angle_alpha 90
_cell_angle_beta 102.142
_cell_angle_gamma 90
_space_group_name_H-M_alt 'P 1'
_space_group_name_Hall 'P 1'
loop_
    _symmetry_equiv_pos_as_xyz
    x,y,z
loop_
    _atom_site_label
    _atom_site_type_symbol
    _atom_site_fract_x
    _atom_site_fract_y
    _atom_site_fract_z
    _atom_site_occupancy
    C1       C        0.55930    0.75310    0.16440    1.000
    C2       C        0.58410    0.77360    0.11300    1.000
    C3       C        0.65470    0.90330    0.09900    1.000
    C4       C        0.67670    0.91550    0.05100    1.000
    H1       H        0.72370    0.00180    0.04160    1.000
    C5       C        0.63080    0.80360    0.01740    1.000
    H2       H        0.64530    0.81500    0.98520    1.000
    C6       C        0.56240    0.67220    0.03060    1.000
    C7       C        0.53730    0.65950    0.07860    1.000
    H3       H        0.48870    0.57360    0.08750    1.000
    C8       C        0.34100    0.18790    0.17430    1.000
    C9       C        0.25500    0.06650    0.14360    1.000
    C10      C        0.23540    0.91830    0.16210    1.000
    C11      C        0.15430    0.81250    0.12750    1.000
    H4       H        0.14400    0.71350    0.13800    1.000
    C12      C        0.09090    0.84950    0.07980    1.000
    H5       H        0.03750    0.77650    0.05850    1.000
    C13      C        0.10550    0.99640    0.06250    1.000
    C14      C        0.18760    0.10050    0.09440    1.000
    H6       H        0.19910    0.19780    0.08280    1.000
    H7       H        0.67300    0.99100    0.15690    1.000
    Ho1      Ho       0.50379    0.93907    0.26706    1.000
    N1       N        0.52420    0.55990    0.99320    1.000
    N2       N        0.03740    0.04800    0.01410    1.000
    O1       O        0.49830    0.63450    0.17514    1.000
    O2       O        0.33380    0.32050    0.15876    1.000
    O3       O        0.60010    0.86330    0.19481    1.000
    O4       O        0.70330    0.01690    0.13100    1.000
    O5       O        0.28210    0.87870    0.20872    1.000
    O6       O        0.42480    0.15950    0.21738    1.000
    C15      C        0.44070    0.25310    0.33560    1.000
    C16      C        0.41590    0.27360    0.38700    1.000
    C17      C        0.34530    0.40330    0.40100    1.000
    C18      C        0.32330    0.41550    0.44900    1.000
    H8       H        0.27630    0.50180    0.45840    1.000
    C19      C        0.36920    0.30360    0.48260    1.000
    H9       H        0.35470    0.31500    0.51480    1.000
    C20      C        0.43760    0.17220    0.46940    1.000
    C21      C        0.46270    0.15950    0.42140    1.000
    H10      H        0.51130    0.07360    0.41250    1.000
    C22      C        0.65900    0.68790    0.32570    1.000
    C23      C        0.74500    0.56650    0.35640    1.000
    C24      C        0.76460    0.41830    0.33790    1.000
    C25      C        0.84570    0.31250    0.37250    1.000
    H11      H        0.85600    0.21350    0.36200    1.000
    C26      C        0.90910    0.34950    0.42020    1.000
    H12      H        0.96250    0.27650    0.44150    1.000
    C27      C        0.89450    0.49640    0.43750    1.000
    C28      C        0.81240    0.60050    0.40560    1.000
    H13      H        0.80090    0.69780    0.41720    1.000
    H14      H        0.32700    0.49100    0.34310    1.000
    Ho2      Ho       0.49621    0.43907    0.23294    1.000
    N3       N        0.47580    0.05990    0.50680    1.000
    N4       N        0.96260    0.54800    0.48590    1.000
    O7       O        0.50170    0.13450    0.32486    1.000
    O8       O        0.66620    0.82050    0.34124    1.000
    O9       O        0.39990    0.36330    0.30519    1.000
    O10      O        0.29670    0.51690    0.36900    1.000
    O11      O        0.71790    0.37870    0.29128    1.000
    O12      O        0.57520    0.65950    0.28262    1.000
    C29      C        0.44070    0.24690    0.83560    1.000
    C30      C        0.41590    0.22640    0.88700    1.000
    C31      C        0.34530    0.09670    0.90100    1.000
    C32      C        0.32330    0.08450    0.94900    1.000
    H15      H        0.27630    0.99820    0.95840    1.000
    C33      C        0.36920    0.19640    0.98260    1.000
    H16      H        0.35470    0.18500    0.01480    1.000
    C34      C        0.43760    0.32780    0.96940    1.000
    C35      C        0.46270    0.34050    0.92140    1.000
    H17      H        0.51130    0.42640    0.91250    1.000
    C36      C        0.65900    0.81210    0.82570    1.000
    C37      C        0.74500    0.93350    0.85640    1.000
    C38      C        0.76460    0.08170    0.83790    1.000
    C39      C        0.84570    0.18750    0.87250    1.000
    H18      H        0.85600    0.28650    0.86200    1.000
    C40      C        0.90910    0.15050    0.92020    1.000
    H19      H        0.96250    0.22350    0.94150    1.000
    C41      C        0.89450    0.00360    0.93750    1.000
    C42      C        0.81240    0.89950    0.90560    1.000
    H20      H        0.80090    0.80220    0.91720    1.000
    H21      H        0.32700    0.00900    0.84310    1.000
    Ho3      Ho       0.49621    0.06093    0.73294    1.000
    N5       N        0.47580    0.44010    0.00680    1.000
    N6       N        0.96260    0.95200    0.98590    1.000
    O13      O        0.50170    0.36550    0.82486    1.000
    O14      O        0.66620    0.67950    0.84124    1.000
    O15      O        0.39990    0.13670    0.80519    1.000
    O16      O        0.29670    0.98310    0.86900    1.000
    O17      O        0.71790    0.12130    0.79128    1.000
    O18      O        0.57520    0.84050    0.78262    1.000
    C43      C        0.55930    0.74690    0.66440    1.000
    C44      C        0.58410    0.72640    0.61300    1.000
    C45      C        0.65470    0.59670    0.59900    1.000
    C46      C        0.67670    0.58450    0.55100    1.000
    H22      H        0.72370    0.49820    0.54160    1.000
    C47      C        0.63080    0.69640    0.51740    1.000
    H23      H        0.64530    0.68500    0.48520    1.000
    C48      C        0.56240    0.82780    0.53060    1.000
    C49      C        0.53730    0.84050    0.57860    1.000
    H24      H        0.48870    0.92640    0.58750    1.000
    C50      C        0.34100    0.31210    0.67430    1.000
    C51      C        0.25500    0.43350    0.64360    1.000
    C52      C        0.23540    0.58170    0.66210    1.000
    C53      C        0.15430    0.68750    0.62750    1.000
    H25      H        0.14400    0.78650    0.63800    1.000
    C54      C        0.09090    0.65050    0.57980    1.000
    H26      H        0.03750    0.72350    0.55850    1.000
    C55      C        0.10550    0.50360    0.56250    1.000
    C56      C        0.18760    0.39950    0.59440    1.000
    H27      H        0.19910    0.30220    0.58280    1.000
    H28      H        0.67300    0.50900    0.65690    1.000
    Ho4      Ho       0.50379    0.56093    0.76706    1.000
    N7       N        0.52420    0.94010    0.49320    1.000
    N8       N        0.03740    0.45200    0.51410    1.000
    O19      O        0.49830    0.86550    0.67514    1.000
    O20      O        0.33380    0.17950    0.65876    1.000
    O21      O        0.60010    0.63670    0.69481    1.000
    O22      O        0.70330    0.48310    0.63100    1.000
    O23      O        0.28210    0.62130    0.70872    1.000
    O24      O        0.42480    0.34050    0.71738    1.000
