# CIF file generated by openbabel 3.1.0, see https://openbabel.org
data_I
_chemical_name_common 'AKUHOD01_clean'
_cell_length_a 10.5125
_cell_length_b 10.5125
_cell_length_c 10.8652
_cell_angle_alpha 78.8877
_cell_angle_beta 62.4543
_cell_angle_gamma 108.834
_space_group_name_H-M_alt 'P 1'
_space_group_name_Hall 'P 1'
loop_
    _symmetry_equiv_pos_as_xyz
    x,y,z
loop_
    _atom_site_label
    _atom_site_type_symbol
    _atom_site_fract_x
    _atom_site_fract_y
    _atom_site_fract_z
    _atom_site_occupancy
    Gd1      Gd       0.05203    0.36555    0.87957    1.000
    Gd2      Gd       0.74512    0.93160    0.62043    1.000
    Gd3      Gd       0.94797    0.63445    0.12043    1.000
    Gd4      Gd       0.25488    0.06840    0.37957    1.000
    H1       H        0.46000    0.38490    0.81810    1.000
    H2       H        0.60410    0.48880    0.64950    1.000
    H3       H        0.88700    0.55200    0.71900    1.000
    H4       H        0.70300    0.27810    0.68190    1.000
    H5       H        0.63830    0.25360    0.85050    1.000
    H6       H        0.77100    0.60600    0.78100    1.000
    H7       H        0.54000    0.61510    0.18190    1.000
    H8       H        0.39590    0.51120    0.35050    1.000
    H9       H        0.11300    0.44800    0.28100    1.000
    H10      H        0.29700    0.72190    0.31810    1.000
    H11      H        0.36170    0.74640    0.14950    1.000
    H12      H        0.22900    0.39400    0.21900    1.000
    C1       C        0.45300    0.57240    0.74340    1.000
    C2       C        0.48760    0.44760    0.72200    1.000
    C3       C        0.40220    0.35110    0.66850    1.000
    C4       C        0.90170    0.62490    0.87520    1.000
    C5       C        0.81580    0.19640    0.75660    1.000
    C6       C        0.66960    0.20960    0.77800    1.000
    C7       C        0.51960    0.07070    0.83150    1.000
    C8       C        0.00010    0.77690    0.62480    1.000
    C9       C        0.54700    0.42760    0.25660    1.000
    C10      C        0.51240    0.55240    0.27800    1.000
    C11      C        0.59780    0.64890    0.33150    1.000
    C12      C        0.09830    0.37510    0.12480    1.000
    C13      C        0.18420    0.80360    0.24340    1.000
    C14      C        0.33040    0.79040    0.22200    1.000
    C15      C        0.48040    0.92930    0.16850    1.000
    C16      C        0.99990    0.22310    0.37520    1.000
    C17      C        0.87560    0.62560    0.75000    1.000
    C18      C        0.12440    0.37440    0.25000    1.000
    O1       O        0.31290    0.55820    0.79290    1.000
    O2       O        0.56870    0.68600    0.71530    1.000
    O3       O        0.25280    0.30980    0.72540    1.000
    O4       O        0.48260    0.31250    0.57250    1.000
    O5       O        0.96200    0.54910    0.90790    1.000
    O6       O        0.86910    0.70710    0.94160    1.000
    O7       O        0.85110    0.10580    0.70710    1.000
    O8       O        0.90130    0.28400    0.78470    1.000
    O9       O        0.53520    0.97820    0.77460    1.000
    O10      O        0.38500    0.05510    0.92750    1.000
    O11      O        0.95700    0.86990    0.59210    1.000
    O12      O        0.14870    0.81070    0.55840    1.000
    O13      O        0.68710    0.44180    0.20710    1.000
    O14      O        0.43130    0.31400    0.28470    1.000
    O15      O        0.74720    0.69020    0.27460    1.000
    O16      O        0.51740    0.68750    0.42750    1.000
    O17      O        0.03800    0.45090    0.09210    1.000
    O18      O        0.13090    0.29290    0.05840    1.000
    O19      O        0.14890    0.89420    0.29290    1.000
    O20      O        0.09870    0.71600    0.21530    1.000
    O21      O        0.46480    0.02180    0.22540    1.000
    O22      O        0.61500    0.94490    0.07250    1.000
    O23      O        0.04300    0.13010    0.40790    1.000
    O24      O        0.85130    0.18930    0.44160    1.000
