# CIF file generated by openbabel 3.1.0, see https://openbabel.org
data_I
_chemical_name_common 'image0'
_cell_length_a 26.682
_cell_length_b 39.63
_cell_length_c 17.0967
_cell_angle_alpha 90
_cell_angle_beta 100.95
_cell_angle_gamma 90
_space_group_name_H-M_alt 'P 1'
_space_group_name_Hall 'P 1'
loop_
    _symmetry_equiv_pos_as_xyz
    x,y,z
loop_
    _atom_site_label
    _atom_site_type_symbol
    _atom_site_fract_x
    _atom_site_fract_y
    _atom_site_fract_z
    _atom_site_occupancy
    Cd1      Cd       0.19292    0.16879    0.50422    1.000
    N1       N        0.16810    0.11414    0.50530    1.000
    N2       N        0.15650    0.06066    0.47270    1.000
    C1       C        0.43800    0.18820    0.07850    1.000
    C2       C        0.46980    0.16270    0.04390    1.000
    H1       H        0.49120    0.15000    0.08620    1.000
    H2       H        0.44800    0.14690    0.00980    1.000
    C3       C        0.47190    0.21650    0.12420    1.000
    H3       H        0.48990    0.22860    0.08860    1.000
    H4       H        0.45110    0.23250    0.14690    1.000
    C4       C        0.40740    0.17064    0.13470    1.000
    H5       H        0.38340    0.15460    0.10550    1.000
    H6       H        0.43010    0.15870    0.17670    1.000
    C5       C        0.40230    0.20650    0.01070    1.000
    H7       H        0.38330    0.22400    0.03190    1.000
    H8       H        0.42170    0.21670    0.97440    1.000
    C6       C        0.54000    0.22010    0.23610    1.000
    C7       C        0.54320    0.25550    0.22700    1.000
    H9       H        0.52300    0.26640    0.18410    1.000
    C8       C        0.57630    0.27340    0.28220    1.000
    H10      H        0.57830    0.29660    0.27550    1.000
    C9       C        0.60690    0.25890    0.34700    1.000
    C10      C        0.60350    0.22400    0.35610    1.000
    H11      H        0.62330    0.21370    0.40030    1.000
    C11      C        0.57090    0.20410    0.29990    1.000
    H12      H        0.57000    0.18080    0.30550    1.000
    C12      C        0.64120    0.27920    0.40710    1.000
    C13      C        0.35470    0.18870    0.22650    1.000
    C14      C        0.33840    0.21640    0.26520    1.000
    H13      H        0.34560    0.23820    0.25080    1.000
    C15      C        0.31180    0.21070    0.32470    1.000
    H14      H        0.30130    0.22910    0.35140    1.000
    C16      C        0.29970    0.17834    0.34680    1.000
    C17      C        0.31580    0.15220    0.30690    1.000
    H15      H        0.30740    0.13050    0.32040    1.000
    C18      C        0.34380    0.15600    0.24770    1.000
    H16      H        0.35500    0.13730    0.22280    1.000
    C19      C        0.26910    0.17310    0.41100    1.000
    C20      C        0.34250    0.18840    0.89460    1.000
    C21      C        0.33900    0.21930    0.85960    1.000
    H17      H        0.35480    0.23780    0.88750    1.000
    C22      C        0.31190    0.22330    0.78180    1.000
    H18      H        0.31020    0.24450    0.75790    1.000
    C23      C        0.28750    0.19630    0.73990    1.000
    C24      C        0.29230    0.16460    0.77560    1.000
    H19      H        0.27930    0.14560    0.74690    1.000
    C25      C        0.31660    0.16170    0.85400    1.000
    H20      H        0.31550    0.14120    0.88010    1.000
    C26      C        0.25900    0.20010    0.65510    1.000
    C27      C        0.17730    0.09090    0.45700    1.000
    H21      H        0.19580    0.09420    0.41670    1.000
    C28      C        0.14220    0.09980    0.56000    1.000
    H22      H        0.13310    0.11070    0.60340    1.000
    C29      C        0.13210    0.06600    0.53850    1.000
    H23      H        0.11340    0.05050    0.56220    1.000
    C30      C        0.15930    0.03000    0.43260    1.000
    C31      C        0.15940    0.03070    0.35130    1.000
    H24      H        0.15960    0.05130    0.32500    1.000
    C32      C        0.15350    0.02470    0.18200    1.000
    O1       O        0.50751    0.19992    0.18640    1.000
    O2       O        0.38090    0.19678    0.16720    1.000
    O3       O        0.36820    0.18133    0.97020    1.000
    O4       O        0.64300    0.31058    0.39410    1.000
    O5       O        0.66581    0.26563    0.46930    1.000
    O6       O        0.26230    0.19707    0.45560    1.000
    O7       O        0.24910    0.14459    0.41690    1.000
    O8       O        0.25910    0.22814    0.62320    1.000
    O9       O        0.23850    0.17375    0.62420    1.000
    N3       N        0.15840    0.01570    0.10490    1.000
    Cd2      Cd       0.69292    0.66879    0.50422    1.000
    N4       N        0.66810    0.61414    0.50530    1.000
    N5       N        0.65650    0.56066    0.47270    1.000
    C33      C        0.93800    0.68820    0.07850    1.000
    C34      C        0.96980    0.66270    0.04390    1.000
    H25      H        0.99120    0.65000    0.08620    1.000
    H26      H        0.94800    0.64690    0.00980    1.000
    C35      C        0.97190    0.71650    0.12420    1.000
    H27      H        0.98990    0.72860    0.08860    1.000
    H28      H        0.95110    0.73250    0.14690    1.000
    C36      C        0.90740    0.67064    0.13470    1.000
    H29      H        0.88340    0.65460    0.10550    1.000
    H30      H        0.93010    0.65870    0.17670    1.000
    C37      C        0.90230    0.70650    0.01070    1.000
    H31      H        0.88330    0.72400    0.03190    1.000
    H32      H        0.92170    0.71670    0.97440    1.000
    C38      C        0.04000    0.72010    0.23610    1.000
    C39      C        0.04320    0.75550    0.22700    1.000
    H33      H        0.02300    0.76640    0.18410    1.000
    C40      C        0.07630    0.77340    0.28220    1.000
    H34      H        0.07830    0.79660    0.27550    1.000
    C41      C        0.10690    0.75890    0.34700    1.000
    C42      C        0.10350    0.72400    0.35610    1.000
    H35      H        0.12330    0.71370    0.40030    1.000
    C43      C        0.07090    0.70410    0.29990    1.000
    H36      H        0.07000    0.68080    0.30550    1.000
    C44      C        0.14120    0.77920    0.40710    1.000
    C45      C        0.85470    0.68870    0.22650    1.000
    C46      C        0.83840    0.71640    0.26520    1.000
    H37      H        0.84560    0.73820    0.25080    1.000
    C47      C        0.81180    0.71070    0.32470    1.000
    H38      H        0.80130    0.72910    0.35140    1.000
    C48      C        0.79970    0.67834    0.34680    1.000
    C49      C        0.81580    0.65220    0.30690    1.000
    H39      H        0.80740    0.63050    0.32040    1.000
    C50      C        0.84380    0.65600    0.24770    1.000
    H40      H        0.85500    0.63730    0.22280    1.000
    C51      C        0.76910    0.67310    0.41100    1.000
    C52      C        0.84250    0.68840    0.89460    1.000
    C53      C        0.83900    0.71930    0.85960    1.000
    H41      H        0.85480    0.73780    0.88750    1.000
    C54      C        0.81190    0.72330    0.78180    1.000
    H42      H        0.81020    0.74450    0.75790    1.000
    C55      C        0.78750    0.69630    0.73990    1.000
    C56      C        0.79230    0.66460    0.77560    1.000
    H43      H        0.77930    0.64560    0.74690    1.000
    C57      C        0.81660    0.66170    0.85400    1.000
    H44      H        0.81550    0.64120    0.88010    1.000
    C58      C        0.75900    0.70010    0.65510    1.000
    C59      C        0.67730    0.59090    0.45700    1.000
    H45      H        0.69580    0.59420    0.41670    1.000
    C60      C        0.64220    0.59980    0.56000    1.000
    H46      H        0.63310    0.61070    0.60340    1.000
    C61      C        0.63210    0.56600    0.53850    1.000
    H47      H        0.61340    0.55050    0.56220    1.000
    C62      C        0.65930    0.53000    0.43260    1.000
    C63      C        0.65940    0.53070    0.35130    1.000
    H48      H        0.65960    0.55130    0.32500    1.000
    C64      C        0.65350    0.52470    0.18200    1.000
    O10      O        0.00751    0.69992    0.18640    1.000
    O11      O        0.88090    0.69678    0.16720    1.000
    O12      O        0.86820    0.68133    0.97020    1.000
    O13      O        0.14300    0.81058    0.39410    1.000
    O14      O        0.16581    0.76563    0.46930    1.000
    O15      O        0.76230    0.69707    0.45560    1.000
    O16      O        0.74910    0.64459    0.41690    1.000
    O17      O        0.75910    0.72814    0.62320    1.000
    O18      O        0.73850    0.67375    0.62420    1.000
    N6       N        0.65840    0.51570    0.10490    1.000
    Cd3      Cd       0.80708    0.16879    0.49578    1.000
    N7       N        0.83190    0.11414    0.49470    1.000
    N8       N        0.84350    0.06066    0.52730    1.000
    C65      C        0.56200    0.18820    0.92150    1.000
    C66      C        0.53020    0.16270    0.95610    1.000
    H49      H        0.50880    0.15000    0.91380    1.000
    H50      H        0.55200    0.14690    0.99020    1.000
    C67      C        0.52810    0.21650    0.87580    1.000
    H51      H        0.51010    0.22860    0.91140    1.000
    H52      H        0.54890    0.23250    0.85310    1.000
    C68      C        0.59260    0.17064    0.86530    1.000
    H53      H        0.61660    0.15460    0.89450    1.000
    H54      H        0.56990    0.15870    0.82330    1.000
    C69      C        0.59770    0.20650    0.98930    1.000
    H55      H        0.61670    0.22400    0.96810    1.000
    H56      H        0.57830    0.21670    0.02560    1.000
    C70      C        0.46000    0.22010    0.76390    1.000
    C71      C        0.45680    0.25550    0.77300    1.000
    H57      H        0.47700    0.26640    0.81590    1.000
    C72      C        0.42370    0.27340    0.71780    1.000
    H58      H        0.42170    0.29660    0.72450    1.000
    C73      C        0.39310    0.25890    0.65300    1.000
    C74      C        0.39650    0.22400    0.64390    1.000
    H59      H        0.37670    0.21370    0.59970    1.000
    C75      C        0.42910    0.20410    0.70010    1.000
    H60      H        0.43000    0.18080    0.69450    1.000
    C76      C        0.35880    0.27920    0.59290    1.000
    C77      C        0.64530    0.18870    0.77350    1.000
    C78      C        0.66160    0.21640    0.73480    1.000
    H61      H        0.65440    0.23820    0.74920    1.000
    C79      C        0.68820    0.21070    0.67530    1.000
    H62      H        0.69870    0.22910    0.64860    1.000
    C80      C        0.70030    0.17834    0.65320    1.000
    C81      C        0.68420    0.15220    0.69310    1.000
    H63      H        0.69260    0.13050    0.67960    1.000
    C82      C        0.65620    0.15600    0.75230    1.000
    H64      H        0.64500    0.13730    0.77720    1.000
    C83      C        0.73090    0.17310    0.58900    1.000
    C84      C        0.65750    0.18840    0.10540    1.000
    C85      C        0.66100    0.21930    0.14040    1.000
    H65      H        0.64520    0.23780    0.11250    1.000
    C86      C        0.68810    0.22330    0.21820    1.000
    H66      H        0.68980    0.24450    0.24210    1.000
    C87      C        0.71250    0.19630    0.26010    1.000
    C88      C        0.70770    0.16460    0.22440    1.000
    H67      H        0.72070    0.14560    0.25310    1.000
    C89      C        0.68340    0.16170    0.14600    1.000
    H68      H        0.68450    0.14120    0.11990    1.000
    C90      C        0.74100    0.20010    0.34490    1.000
    C91      C        0.82270    0.09090    0.54300    1.000
    H69      H        0.80420    0.09420    0.58330    1.000
    C92      C        0.85780    0.09980    0.44000    1.000
    H70      H        0.86690    0.11070    0.39660    1.000
    C93      C        0.86790    0.06600    0.46150    1.000
    H71      H        0.88660    0.05050    0.43780    1.000
    C94      C        0.84070    0.03000    0.56740    1.000
    C95      C        0.84060    0.03070    0.64870    1.000
    H72      H        0.84040    0.05130    0.67500    1.000
    C96      C        0.84650    0.02470    0.81800    1.000
    O19      O        0.49249    0.19992    0.81360    1.000
    O20      O        0.61910    0.19678    0.83280    1.000
    O21      O        0.63180    0.18133    0.02980    1.000
    O22      O        0.35700    0.31058    0.60590    1.000
    O23      O        0.33419    0.26563    0.53070    1.000
    O24      O        0.73770    0.19707    0.54440    1.000
    O25      O        0.75090    0.14459    0.58310    1.000
    O26      O        0.74090    0.22814    0.37680    1.000
    O27      O        0.76150    0.17375    0.37580    1.000
    N9       N        0.84160    0.01570    0.89510    1.000
    Cd4      Cd       0.30708    0.66879    0.49578    1.000
    N10      N        0.33190    0.61414    0.49470    1.000
    N11      N        0.34350    0.56066    0.52730    1.000
    C97      C        0.06200    0.68820    0.92150    1.000
    C98      C        0.03020    0.66270    0.95610    1.000
    H73      H        0.00880    0.65000    0.91380    1.000
    H74      H        0.05200    0.64690    0.99020    1.000
    C99      C        0.02810    0.71650    0.87580    1.000
    H75      H        0.01010    0.72860    0.91140    1.000
    H76      H        0.04890    0.73250    0.85310    1.000
    C100     C        0.09260    0.67064    0.86530    1.000
    H77      H        0.11660    0.65460    0.89450    1.000
    H78      H        0.06990    0.65870    0.82330    1.000
    C101     C        0.09770    0.70650    0.98930    1.000
    H79      H        0.11670    0.72400    0.96810    1.000
    H80      H        0.07830    0.71670    0.02560    1.000
    C102     C        0.96000    0.72010    0.76390    1.000
    C103     C        0.95680    0.75550    0.77300    1.000
    H81      H        0.97700    0.76640    0.81590    1.000
    C104     C        0.92370    0.77340    0.71780    1.000
    H82      H        0.92170    0.79660    0.72450    1.000
    C105     C        0.89310    0.75890    0.65300    1.000
    C106     C        0.89650    0.72400    0.64390    1.000
    H83      H        0.87670    0.71370    0.59970    1.000
    C107     C        0.92910    0.70410    0.70010    1.000
    H84      H        0.93000    0.68080    0.69450    1.000
    C108     C        0.85880    0.77920    0.59290    1.000
    C109     C        0.14530    0.68870    0.77350    1.000
    C110     C        0.16160    0.71640    0.73480    1.000
    H85      H        0.15440    0.73820    0.74920    1.000
    C111     C        0.18820    0.71070    0.67530    1.000
    H86      H        0.19870    0.72910    0.64860    1.000
    C112     C        0.20030    0.67834    0.65320    1.000
    C113     C        0.18420    0.65220    0.69310    1.000
    H87      H        0.19260    0.63050    0.67960    1.000
    C114     C        0.15620    0.65600    0.75230    1.000
    H88      H        0.14500    0.63730    0.77720    1.000
    C115     C        0.23090    0.67310    0.58900    1.000
    C116     C        0.15750    0.68840    0.10540    1.000
    C117     C        0.16100    0.71930    0.14040    1.000
    H89      H        0.14520    0.73780    0.11250    1.000
    C118     C        0.18810    0.72330    0.21820    1.000
    H90      H        0.18980    0.74450    0.24210    1.000
    C119     C        0.21250    0.69630    0.26010    1.000
    C120     C        0.20770    0.66460    0.22440    1.000
    H91      H        0.22070    0.64560    0.25310    1.000
    C121     C        0.18340    0.66170    0.14600    1.000
    H92      H        0.18450    0.64120    0.11990    1.000
    C122     C        0.24100    0.70010    0.34490    1.000
    C123     C        0.32270    0.59090    0.54300    1.000
    H93      H        0.30420    0.59420    0.58330    1.000
    C124     C        0.35780    0.59980    0.44000    1.000
    H94      H        0.36690    0.61070    0.39660    1.000
    C125     C        0.36790    0.56600    0.46150    1.000
    H95      H        0.38660    0.55050    0.43780    1.000
    C126     C        0.34070    0.53000    0.56740    1.000
    C127     C        0.34060    0.53070    0.64870    1.000
    H96      H        0.34040    0.55130    0.67500    1.000
    C128     C        0.34650    0.52470    0.81800    1.000
    O28      O        0.99249    0.69992    0.81360    1.000
    O29      O        0.11910    0.69678    0.83280    1.000
    O30      O        0.13180    0.68133    0.02980    1.000
    O31      O        0.85700    0.81058    0.60590    1.000
    O32      O        0.83419    0.76563    0.53070    1.000
    O33      O        0.23770    0.69707    0.54440    1.000
    O34      O        0.25090    0.64459    0.58310    1.000
    O35      O        0.24090    0.72814    0.37680    1.000
    O36      O        0.26150    0.67375    0.37580    1.000
    N12      N        0.34160    0.51570    0.89510    1.000
    Cd5      Cd       0.80708    0.83121    0.49578    1.000
    N13      N        0.83190    0.88586    0.49470    1.000
    N14      N        0.84350    0.93934    0.52730    1.000
    C129     C        0.56200    0.81180    0.92150    1.000
    C130     C        0.53020    0.83730    0.95610    1.000
    H97      H        0.50880    0.85000    0.91380    1.000
    H98      H        0.55200    0.85310    0.99020    1.000
    C131     C        0.52810    0.78350    0.87580    1.000
    H99      H        0.51010    0.77140    0.91140    1.000
    H100     H        0.54890    0.76750    0.85310    1.000
    C132     C        0.59260    0.82936    0.86530    1.000
    H101     H        0.61660    0.84540    0.89450    1.000
    H102     H        0.56990    0.84130    0.82330    1.000
    C133     C        0.59770    0.79350    0.98930    1.000
    H103     H        0.61670    0.77600    0.96810    1.000
    H104     H        0.57830    0.78330    0.02560    1.000
    C134     C        0.46000    0.77990    0.76390    1.000
    C135     C        0.45680    0.74450    0.77300    1.000
    H105     H        0.47700    0.73360    0.81590    1.000
    C136     C        0.42370    0.72660    0.71780    1.000
    H106     H        0.42170    0.70340    0.72450    1.000
    C137     C        0.39310    0.74110    0.65300    1.000
    C138     C        0.39650    0.77600    0.64390    1.000
    H107     H        0.37670    0.78630    0.59970    1.000
    C139     C        0.42910    0.79590    0.70010    1.000
    H108     H        0.43000    0.81920    0.69450    1.000
    C140     C        0.35880    0.72080    0.59290    1.000
    C141     C        0.64530    0.81130    0.77350    1.000
    C142     C        0.66160    0.78360    0.73480    1.000
    H109     H        0.65440    0.76180    0.74920    1.000
    C143     C        0.68820    0.78930    0.67530    1.000
    H110     H        0.69870    0.77090    0.64860    1.000
    C144     C        0.70030    0.82166    0.65320    1.000
    C145     C        0.68420    0.84780    0.69310    1.000
    H111     H        0.69260    0.86950    0.67960    1.000
    C146     C        0.65620    0.84400    0.75230    1.000
    H112     H        0.64500    0.86270    0.77720    1.000
    C147     C        0.73090    0.82690    0.58900    1.000
    C148     C        0.65750    0.81160    0.10540    1.000
    C149     C        0.66100    0.78070    0.14040    1.000
    H113     H        0.64520    0.76220    0.11250    1.000
    C150     C        0.68810    0.77670    0.21820    1.000
    H114     H        0.68980    0.75550    0.24210    1.000
    C151     C        0.71250    0.80370    0.26010    1.000
    C152     C        0.70770    0.83540    0.22440    1.000
    H115     H        0.72070    0.85440    0.25310    1.000
    C153     C        0.68340    0.83830    0.14600    1.000
    H116     H        0.68450    0.85880    0.11990    1.000
    C154     C        0.74100    0.79990    0.34490    1.000
    C155     C        0.82270    0.90910    0.54300    1.000
    H117     H        0.80420    0.90580    0.58330    1.000
    C156     C        0.85780    0.90020    0.44000    1.000
    H118     H        0.86690    0.88930    0.39660    1.000
    C157     C        0.86790    0.93400    0.46150    1.000
    H119     H        0.88660    0.94950    0.43780    1.000
    C158     C        0.84070    0.97000    0.56740    1.000
    C159     C        0.84060    0.96930    0.64870    1.000
    H120     H        0.84040    0.94870    0.67500    1.000
    C160     C        0.84650    0.97530    0.81800    1.000
    O37      O        0.49249    0.80008    0.81360    1.000
    O38      O        0.61910    0.80322    0.83280    1.000
    O39      O        0.63180    0.81867    0.02980    1.000
    O40      O        0.35700    0.68942    0.60590    1.000
    O41      O        0.33419    0.73437    0.53070    1.000
    O42      O        0.73770    0.80293    0.54440    1.000
    O43      O        0.75090    0.85541    0.58310    1.000
    O44      O        0.74090    0.77186    0.37680    1.000
    O45      O        0.76150    0.82625    0.37580    1.000
    N15      N        0.84160    0.98430    0.89510    1.000
    Cd6      Cd       0.30708    0.33121    0.49578    1.000
    N16      N        0.33190    0.38586    0.49470    1.000
    N17      N        0.34350    0.43934    0.52730    1.000
    C161     C        0.06200    0.31180    0.92150    1.000
    C162     C        0.03020    0.33730    0.95610    1.000
    H121     H        0.00880    0.35000    0.91380    1.000
    H122     H        0.05200    0.35310    0.99020    1.000
    C163     C        0.02810    0.28350    0.87580    1.000
    H123     H        0.01010    0.27140    0.91140    1.000
    H124     H        0.04890    0.26750    0.85310    1.000
    C164     C        0.09260    0.32936    0.86530    1.000
    H125     H        0.11660    0.34540    0.89450    1.000
    H126     H        0.06990    0.34130    0.82330    1.000
    C165     C        0.09770    0.29350    0.98930    1.000
    H127     H        0.11670    0.27600    0.96810    1.000
    H128     H        0.07830    0.28330    0.02560    1.000
    C166     C        0.96000    0.27990    0.76390    1.000
    C167     C        0.95680    0.24450    0.77300    1.000
    H129     H        0.97700    0.23360    0.81590    1.000
    C168     C        0.92370    0.22660    0.71780    1.000
    H130     H        0.92170    0.20340    0.72450    1.000
    C169     C        0.89310    0.24110    0.65300    1.000
    C170     C        0.89650    0.27600    0.64390    1.000
    H131     H        0.87670    0.28630    0.59970    1.000
    C171     C        0.92910    0.29590    0.70010    1.000
    H132     H        0.93000    0.31920    0.69450    1.000
    C172     C        0.85880    0.22080    0.59290    1.000
    C173     C        0.14530    0.31130    0.77350    1.000
    C174     C        0.16160    0.28360    0.73480    1.000
    H133     H        0.15440    0.26180    0.74920    1.000
    C175     C        0.18820    0.28930    0.67530    1.000
    H134     H        0.19870    0.27090    0.64860    1.000
    C176     C        0.20030    0.32166    0.65320    1.000
    C177     C        0.18420    0.34780    0.69310    1.000
    H135     H        0.19260    0.36950    0.67960    1.000
    C178     C        0.15620    0.34400    0.75230    1.000
    H136     H        0.14500    0.36270    0.77720    1.000
    C179     C        0.23090    0.32690    0.58900    1.000
    C180     C        0.15750    0.31160    0.10540    1.000
    C181     C        0.16100    0.28070    0.14040    1.000
    H137     H        0.14520    0.26220    0.11250    1.000
    C182     C        0.18810    0.27670    0.21820    1.000
    H138     H        0.18980    0.25550    0.24210    1.000
    C183     C        0.21250    0.30370    0.26010    1.000
    C184     C        0.20770    0.33540    0.22440    1.000
    H139     H        0.22070    0.35440    0.25310    1.000
    C185     C        0.18340    0.33830    0.14600    1.000
    H140     H        0.18450    0.35880    0.11990    1.000
    C186     C        0.24100    0.29990    0.34490    1.000
    C187     C        0.32270    0.40910    0.54300    1.000
    H141     H        0.30420    0.40580    0.58330    1.000
    C188     C        0.35780    0.40020    0.44000    1.000
    H142     H        0.36690    0.38930    0.39660    1.000
    C189     C        0.36790    0.43400    0.46150    1.000
    H143     H        0.38660    0.44950    0.43780    1.000
    C190     C        0.34070    0.47000    0.56740    1.000
    C191     C        0.34060    0.46930    0.64870    1.000
    H144     H        0.34040    0.44870    0.67500    1.000
    C192     C        0.34650    0.47530    0.81800    1.000
    O46      O        0.99249    0.30008    0.81360    1.000
    O47      O        0.11910    0.30322    0.83280    1.000
    O48      O        0.13180    0.31867    0.02980    1.000
    O49      O        0.85700    0.18942    0.60590    1.000
    O50      O        0.83419    0.23437    0.53070    1.000
    O51      O        0.23770    0.30293    0.54440    1.000
    O52      O        0.25090    0.35541    0.58310    1.000
    O53      O        0.24090    0.27186    0.37680    1.000
    O54      O        0.26150    0.32625    0.37580    1.000
    N18      N        0.34160    0.48430    0.89510    1.000
    Cd7      Cd       0.19292    0.83121    0.50422    1.000
    N19      N        0.16810    0.88586    0.50530    1.000
    N20      N        0.15650    0.93934    0.47270    1.000
    C193     C        0.43800    0.81180    0.07850    1.000
    C194     C        0.46980    0.83730    0.04390    1.000
    H145     H        0.49120    0.85000    0.08620    1.000
    H146     H        0.44800    0.85310    0.00980    1.000
    C195     C        0.47190    0.78350    0.12420    1.000
    H147     H        0.48990    0.77140    0.08860    1.000
    H148     H        0.45110    0.76750    0.14690    1.000
    C196     C        0.40740    0.82936    0.13470    1.000
    H149     H        0.38340    0.84540    0.10550    1.000
    H150     H        0.43010    0.84130    0.17670    1.000
    C197     C        0.40230    0.79350    0.01070    1.000
    H151     H        0.38330    0.77600    0.03190    1.000
    H152     H        0.42170    0.78330    0.97440    1.000
    C198     C        0.54000    0.77990    0.23610    1.000
    C199     C        0.54320    0.74450    0.22700    1.000
    H153     H        0.52300    0.73360    0.18410    1.000
    C200     C        0.57630    0.72660    0.28220    1.000
    H154     H        0.57830    0.70340    0.27550    1.000
    C201     C        0.60690    0.74110    0.34700    1.000
    C202     C        0.60350    0.77600    0.35610    1.000
    H155     H        0.62330    0.78630    0.40030    1.000
    C203     C        0.57090    0.79590    0.29990    1.000
    H156     H        0.57000    0.81920    0.30550    1.000
    C204     C        0.64120    0.72080    0.40710    1.000
    C205     C        0.35470    0.81130    0.22650    1.000
    C206     C        0.33840    0.78360    0.26520    1.000
    H157     H        0.34560    0.76180    0.25080    1.000
    C207     C        0.31180    0.78930    0.32470    1.000
    H158     H        0.30130    0.77090    0.35140    1.000
    C208     C        0.29970    0.82166    0.34680    1.000
    C209     C        0.31580    0.84780    0.30690    1.000
    H159     H        0.30740    0.86950    0.32040    1.000
    C210     C        0.34380    0.84400    0.24770    1.000
    H160     H        0.35500    0.86270    0.22280    1.000
    C211     C        0.26910    0.82690    0.41100    1.000
    C212     C        0.34250    0.81160    0.89460    1.000
    C213     C        0.33900    0.78070    0.85960    1.000
    H161     H        0.35480    0.76220    0.88750    1.000
    C214     C        0.31190    0.77670    0.78180    1.000
    H162     H        0.31020    0.75550    0.75790    1.000
    C215     C        0.28750    0.80370    0.73990    1.000
    C216     C        0.29230    0.83540    0.77560    1.000
    H163     H        0.27930    0.85440    0.74690    1.000
    C217     C        0.31660    0.83830    0.85400    1.000
    H164     H        0.31550    0.85880    0.88010    1.000
    C218     C        0.25900    0.79990    0.65510    1.000
    C219     C        0.17730    0.90910    0.45700    1.000
    H165     H        0.19580    0.90580    0.41670    1.000
    C220     C        0.14220    0.90020    0.56000    1.000
    H166     H        0.13310    0.88930    0.60340    1.000
    C221     C        0.13210    0.93400    0.53850    1.000
    H167     H        0.11340    0.94950    0.56220    1.000
    C222     C        0.15930    0.97000    0.43260    1.000
    C223     C        0.15940    0.96930    0.35130    1.000
    H168     H        0.15960    0.94870    0.32500    1.000
    C224     C        0.15350    0.97530    0.18200    1.000
    O55      O        0.50751    0.80008    0.18640    1.000
    O56      O        0.38090    0.80322    0.16720    1.000
    O57      O        0.36820    0.81867    0.97020    1.000
    O58      O        0.64300    0.68942    0.39410    1.000
    O59      O        0.66581    0.73437    0.46930    1.000
    O60      O        0.26230    0.80293    0.45560    1.000
    O61      O        0.24910    0.85541    0.41690    1.000
    O62      O        0.25910    0.77186    0.62320    1.000
    O63      O        0.23850    0.82625    0.62420    1.000
    N21      N        0.15840    0.98430    0.10490    1.000
    Cd8      Cd       0.69292    0.33121    0.50422    1.000
    N22      N        0.66810    0.38586    0.50530    1.000
    N23      N        0.65650    0.43934    0.47270    1.000
    C225     C        0.93800    0.31180    0.07850    1.000
    C226     C        0.96980    0.33730    0.04390    1.000
    H169     H        0.99120    0.35000    0.08620    1.000
    H170     H        0.94800    0.35310    0.00980    1.000
    C227     C        0.97190    0.28350    0.12420    1.000
    H171     H        0.98990    0.27140    0.08860    1.000
    H172     H        0.95110    0.26750    0.14690    1.000
    C228     C        0.90740    0.32936    0.13470    1.000
    H173     H        0.88340    0.34540    0.10550    1.000
    H174     H        0.93010    0.34130    0.17670    1.000
    C229     C        0.90230    0.29350    0.01070    1.000
    H175     H        0.88330    0.27600    0.03190    1.000
    H176     H        0.92170    0.28330    0.97440    1.000
    C230     C        0.04000    0.27990    0.23610    1.000
    C231     C        0.04320    0.24450    0.22700    1.000
    H177     H        0.02300    0.23360    0.18410    1.000
    C232     C        0.07630    0.22660    0.28220    1.000
    H178     H        0.07830    0.20340    0.27550    1.000
    C233     C        0.10690    0.24110    0.34700    1.000
    C234     C        0.10350    0.27600    0.35610    1.000
    H179     H        0.12330    0.28630    0.40030    1.000
    C235     C        0.07090    0.29590    0.29990    1.000
    H180     H        0.07000    0.31920    0.30550    1.000
    C236     C        0.14120    0.22080    0.40710    1.000
    C237     C        0.85470    0.31130    0.22650    1.000
    C238     C        0.83840    0.28360    0.26520    1.000
    H181     H        0.84560    0.26180    0.25080    1.000
    C239     C        0.81180    0.28930    0.32470    1.000
    H182     H        0.80130    0.27090    0.35140    1.000
    C240     C        0.79970    0.32166    0.34680    1.000
    C241     C        0.81580    0.34780    0.30690    1.000
    H183     H        0.80740    0.36950    0.32040    1.000
    C242     C        0.84380    0.34400    0.24770    1.000
    H184     H        0.85500    0.36270    0.22280    1.000
    C243     C        0.76910    0.32690    0.41100    1.000
    C244     C        0.84250    0.31160    0.89460    1.000
    C245     C        0.83900    0.28070    0.85960    1.000
    H185     H        0.85480    0.26220    0.88750    1.000
    C246     C        0.81190    0.27670    0.78180    1.000
    H186     H        0.81020    0.25550    0.75790    1.000
    C247     C        0.78750    0.30370    0.73990    1.000
    C248     C        0.79230    0.33540    0.77560    1.000
    H187     H        0.77930    0.35440    0.74690    1.000
    C249     C        0.81660    0.33830    0.85400    1.000
    H188     H        0.81550    0.35880    0.88010    1.000
    C250     C        0.75900    0.29990    0.65510    1.000
    C251     C        0.67730    0.40910    0.45700    1.000
    H189     H        0.69580    0.40580    0.41670    1.000
    C252     C        0.64220    0.40020    0.56000    1.000
    H190     H        0.63310    0.38930    0.60340    1.000
    C253     C        0.63210    0.43400    0.53850    1.000
    H191     H        0.61340    0.44950    0.56220    1.000
    C254     C        0.65930    0.47000    0.43260    1.000
    C255     C        0.65940    0.46930    0.35130    1.000
    H192     H        0.65960    0.44870    0.32500    1.000
    C256     C        0.65350    0.47530    0.18200    1.000
    O64      O        0.00751    0.30008    0.18640    1.000
    O65      O        0.88090    0.30322    0.16720    1.000
    O66      O        0.86820    0.31867    0.97020    1.000
    O67      O        0.14300    0.18942    0.39410    1.000
    O68      O        0.16581    0.23437    0.46930    1.000
    O69      O        0.76230    0.30293    0.45560    1.000
    O70      O        0.74910    0.35541    0.41690    1.000
    O71      O        0.75910    0.27186    0.62320    1.000
    O72      O        0.73850    0.32625    0.62420    1.000
    N24      N        0.65840    0.48430    0.10490    1.000
    Cd9      Cd       0.25000    0.25000    0.50000    1.000
    Cd10     Cd       0.75000    0.25000    0.50000    1.000
    Cd11     Cd       0.75000    0.75000    0.50000    1.000
    Cd12     Cd       0.25000    0.75000    0.50000    1.000
    N25      N        0.15730    0.00000    0.22760    1.000
    C257     C        0.15920    0.00000    0.30860    1.000
    C258     C        0.15640    0.00000    0.47370    1.000
    H193     H        0.15270    0.00000    0.52670    1.000
    N26      N        0.65730    0.50000    0.22760    1.000
    C259     C        0.65920    0.50000    0.30860    1.000
    C260     C        0.65640    0.50000    0.47370    1.000
    H194     H        0.65270    0.50000    0.52670    1.000
    N27      N        0.84270    0.00000    0.77240    1.000
    C261     C        0.84080    0.00000    0.69140    1.000
    C262     C        0.84360    0.00000    0.52630    1.000
    H195     H        0.84730    0.00000    0.47330    1.000
    N28      N        0.34270    0.50000    0.77240    1.000
    C263     C        0.34080    0.50000    0.69140    1.000
    C264     C        0.34360    0.50000    0.52630    1.000
    H196     H        0.34730    0.50000    0.47330    1.000
    O73      O        0.50000    0.18060    0.00000    1.000
    O74      O        0.00000    0.68060    0.00000    1.000
    O75      O        0.50000    0.81940    0.00000    1.000
    O76      O        0.00000    0.31940    0.00000    1.000
