# CIF file generated by openbabel 3.1.0, see https://openbabel.org
data_I
_chemical_name_common 'image0'
_cell_length_a 25.7611
_cell_length_b 25.7611
_cell_length_c 6.7565
_cell_angle_alpha 90
_cell_angle_beta 90
_cell_angle_gamma 120
_space_group_name_H-M_alt 'P 1'
_space_group_name_Hall 'P 1'
loop_
    _symmetry_equiv_pos_as_xyz
    x,y,z
loop_
    _atom_site_label
    _atom_site_type_symbol
    _atom_site_fract_x
    _atom_site_fract_y
    _atom_site_fract_z
    _atom_site_occupancy
    Ni1      Ni       0.61749    0.64832    0.35370    1.000
    O1       O        0.43692    0.40746    0.43097    1.000
    O2       O        0.36788    0.36529    0.21197    1.000
    O3       O        0.61137    0.58552    0.15552    1.000
    C1       C        0.41661    0.40737    0.24968    1.000
    C2       C        0.46076    0.45409    0.11412    1.000
    C3       C        0.55692    0.55036    0.07689    1.000
    C4       C        0.51575    0.49831    0.19087    1.000
    H1       H        0.52650    0.49396    0.32337    1.000
    Ni2      Ni       0.28416    0.98165    0.68703    1.000
    O4       O        0.10359    0.74079    0.76430    1.000
    O5       O        0.03455    0.69862    0.54530    1.000
    O6       O        0.27804    0.91885    0.48885    1.000
    C5       C        0.08328    0.74070    0.58301    1.000
    C6       C        0.12743    0.78742    0.44745    1.000
    C7       C        0.22359    0.88369    0.41022    1.000
    C8       C        0.18242    0.83164    0.52420    1.000
    H2       H        0.19317    0.82729    0.65670    1.000
    Ni3      Ni       0.95082    0.31499    0.02037    1.000
    O7       O        0.77025    0.07413    0.09764    1.000
    O8       O        0.70121    0.03196    0.87864    1.000
    O9       O        0.94470    0.25219    0.82219    1.000
    C9       C        0.74994    0.07404    0.91635    1.000
    C10      C        0.79409    0.12076    0.78079    1.000
    C11      C        0.89025    0.21703    0.74356    1.000
    C12      C        0.84908    0.16498    0.85754    1.000
    H3       H        0.85983    0.16063    0.99004    1.000
    Ni4      Ni       0.35168    0.96917    0.35370    1.000
    O10      O        0.59254    0.02946    0.43097    1.000
    O11      O        0.63471    0.00259    0.21197    1.000
    O12      O        0.41448    0.02585    0.15552    1.000
    C13      C        0.59263    0.00924    0.24968    1.000
    C14      C        0.54591    0.00667    0.11412    1.000
    C15      C        0.44964    0.00656    0.07689    1.000
    C16      C        0.50169    0.01744    0.19087    1.000
    H4       H        0.50604    0.03254    0.32337    1.000
    Ni5      Ni       0.01835    0.30250    0.68703    1.000
    O13      O        0.25921    0.36279    0.76430    1.000
    O14      O        0.30138    0.33592    0.54530    1.000
    O15      O        0.08115    0.35918    0.48885    1.000
    C17      C        0.25930    0.34257    0.58301    1.000
    C18      C        0.21258    0.34000    0.44745    1.000
    C19      C        0.11631    0.33989    0.41022    1.000
    C20      C        0.16836    0.35077    0.52420    1.000
    H5       H        0.17271    0.36587    0.65670    1.000
    Ni6      Ni       0.68501    0.63584    0.02037    1.000
    O16      O        0.92587    0.69613    0.09764    1.000
    O17      O        0.96804    0.66926    0.87864    1.000
    O18      O        0.74781    0.69252    0.82219    1.000
    C21      C        0.92596    0.67591    0.91635    1.000
    C22      C        0.87924    0.67334    0.78079    1.000
    C23      C        0.78297    0.67323    0.74356    1.000
    C24      C        0.83502    0.68411    0.85754    1.000
    H6       H        0.83937    0.69921    0.99004    1.000
    Ni7      Ni       0.03083    0.38251    0.35370    1.000
    O19      O        0.97054    0.56308    0.43097    1.000
    O20      O        0.99741    0.63212    0.21197    1.000
    O21      O        0.97415    0.38863    0.15552    1.000
    C25      C        0.99076    0.58339    0.24968    1.000
    C26      C        0.99333    0.53924    0.11412    1.000
    C27      C        0.99344    0.44308    0.07689    1.000
    C28      C        0.98256    0.48425    0.19087    1.000
    H7       H        0.96746    0.47350    0.32337    1.000
    Ni8      Ni       0.69750    0.71584    0.68703    1.000
    O22      O        0.63721    0.89641    0.76430    1.000
    O23      O        0.66408    0.96545    0.54530    1.000
    O24      O        0.64082    0.72196    0.48885    1.000
    C29      C        0.65743    0.91672    0.58301    1.000
    C30      C        0.66000    0.87257    0.44745    1.000
    C31      C        0.66011    0.77641    0.41022    1.000
    C32      C        0.64923    0.81758    0.52420    1.000
    H8       H        0.63413    0.80683    0.65670    1.000
    Ni9      Ni       0.36416    0.04918    0.02037    1.000
    O25      O        0.30387    0.22975    0.09764    1.000
    O26      O        0.33074    0.29879    0.87864    1.000
    O27      O        0.30748    0.05530    0.82219    1.000
    C33      C        0.32409    0.25006    0.91635    1.000
    C34      C        0.32666    0.20591    0.78079    1.000
    C35      C        0.32677    0.10975    0.74356    1.000
    C36      C        0.31589    0.15092    0.85754    1.000
    H9       H        0.30079    0.14017    0.99004    1.000
    Ni10     Ni       0.38251    0.35168    0.64630    1.000
    O28      O        0.56308    0.59254    0.56903    1.000
    O29      O        0.63212    0.63471    0.78803    1.000
    O30      O        0.38863    0.41448    0.84448    1.000
    C37      C        0.58339    0.59263    0.75032    1.000
    C38      C        0.53924    0.54591    0.88588    1.000
    C39      C        0.44308    0.44964    0.92311    1.000
    C40      C        0.48425    0.50169    0.80913    1.000
    H10      H        0.47350    0.50604    0.67663    1.000
    Ni11     Ni       0.04918    0.68501    0.97963    1.000
    O31      O        0.22975    0.92587    0.90236    1.000
    O32      O        0.29879    0.96804    0.12136    1.000
    O33      O        0.05530    0.74781    0.17781    1.000
    C41      C        0.25006    0.92596    0.08365    1.000
    C42      C        0.20591    0.87924    0.21921    1.000
    C43      C        0.10975    0.78297    0.25644    1.000
    C44      C        0.15092    0.83502    0.14246    1.000
    H11      H        0.14017    0.83937    0.00996    1.000
    Ni12     Ni       0.71584    0.01835    0.31297    1.000
    O34      O        0.89641    0.25921    0.23570    1.000
    O35      O        0.96545    0.30138    0.45470    1.000
    O36      O        0.72196    0.08115    0.51115    1.000
    C45      C        0.91672    0.25930    0.41699    1.000
    C46      C        0.87257    0.21258    0.55255    1.000
    C47      C        0.77641    0.11631    0.58978    1.000
    C48      C        0.81758    0.16836    0.47580    1.000
    H12      H        0.80683    0.17271    0.34330    1.000
    Ni13     Ni       0.64832    0.03083    0.64630    1.000
    O37      O        0.40746    0.97054    0.56903    1.000
    O38      O        0.36529    0.99741    0.78803    1.000
    O39      O        0.58552    0.97415    0.84448    1.000
    C49      C        0.40737    0.99076    0.75032    1.000
    C50      C        0.45409    0.99333    0.88588    1.000
    C51      C        0.55036    0.99344    0.92311    1.000
    C52      C        0.49831    0.98256    0.80913    1.000
    H13      H        0.49396    0.96746    0.67663    1.000
    Ni14     Ni       0.31499    0.36416    0.97963    1.000
    O40      O        0.07413    0.30387    0.90236    1.000
    O41      O        0.03196    0.33074    0.12136    1.000
    O42      O        0.25219    0.30748    0.17781    1.000
    C53      C        0.07404    0.32409    0.08365    1.000
    C54      C        0.12076    0.32666    0.21921    1.000
    C55      C        0.21703    0.32677    0.25644    1.000
    C56      C        0.16498    0.31589    0.14246    1.000
    H14      H        0.16063    0.30079    0.00996    1.000
    Ni15     Ni       0.98165    0.69750    0.31297    1.000
    O43      O        0.74079    0.63721    0.23570    1.000
    O44      O        0.69862    0.66408    0.45470    1.000
    O45      O        0.91885    0.64082    0.51115    1.000
    C57      C        0.74070    0.65743    0.41699    1.000
    C58      C        0.78742    0.66000    0.55255    1.000
    C59      C        0.88369    0.66011    0.58978    1.000
    C60      C        0.83164    0.64923    0.47580    1.000
    H15      H        0.82729    0.63413    0.34330    1.000
    Ni16     Ni       0.96917    0.61749    0.64630    1.000
    O46      O        0.02946    0.43692    0.56903    1.000
    O47      O        0.00259    0.36788    0.78803    1.000
    O48      O        0.02585    0.61137    0.84448    1.000
    C61      C        0.00924    0.41661    0.75032    1.000
    C62      C        0.00667    0.46076    0.88588    1.000
    C63      C        0.00656    0.55692    0.92311    1.000
    C64      C        0.01744    0.51575    0.80913    1.000
    H16      H        0.03254    0.52650    0.67663    1.000
    Ni17     Ni       0.63584    0.95082    0.97963    1.000
    O49      O        0.69613    0.77025    0.90236    1.000
    O50      O        0.66926    0.70121    0.12136    1.000
    O51      O        0.69252    0.94470    0.17781    1.000
    C65      C        0.67591    0.74994    0.08365    1.000
    C66      C        0.67334    0.79409    0.21921    1.000
    C67      C        0.67323    0.89025    0.25644    1.000
    C68      C        0.68411    0.84908    0.14246    1.000
    H17      H        0.69921    0.85983    0.00996    1.000
    Ni18     Ni       0.30250    0.28416    0.31297    1.000
    O52      O        0.36279    0.10359    0.23570    1.000
    O53      O        0.33592    0.03455    0.45470    1.000
    O54      O        0.35918    0.27804    0.51115    1.000
    C69      C        0.34257    0.08328    0.41699    1.000
    C70      C        0.34000    0.12743    0.55255    1.000
    C71      C        0.33989    0.22359    0.58978    1.000
    C72      C        0.35077    0.18242    0.47580    1.000
    H18      H        0.36587    0.19317    0.34330    1.000
