# CIF file generated by openbabel 3.1.0, see https://openbabel.org
data_I
_chemical_name_common 'image0'
_cell_length_a 25.801
_cell_length_b 16.7844
_cell_length_c 18.9522
_cell_angle_alpha 90
_cell_angle_beta 128.764
_cell_angle_gamma 90
_space_group_name_H-M_alt 'P 1'
_space_group_name_Hall 'P 1'
loop_
    _symmetry_equiv_pos_as_xyz
    x,y,z
loop_
    _atom_site_label
    _atom_site_type_symbol
    _atom_site_fract_x
    _atom_site_fract_y
    _atom_site_fract_z
    _atom_site_occupancy
    Zn1      Zn       0.26811    0.99028    0.29253    1.000
    O1       O        0.14802    0.08122    0.21264    1.000
    O2       O        0.17737    0.96845    0.18604    1.000
    O3       O        0.02094    0.91561    0.17615    1.000
    O4       O        0.08721    0.83866    0.29325    1.000
    C1       C        0.08562    0.82208    0.16803    1.000
    C2       C        0.03766    0.93065    0.04626    1.000
    N1       N        0.27664    0.95699    0.40269    1.000
    C3       C        0.06454    0.00629    0.08235    1.000
    C4       C        0.07301    0.85340    0.08968    1.000
    N2       N        0.07965    0.02446    0.35100    1.000
    N3       N        0.25486    0.90541    0.48797    1.000
    C5       C        0.06368    0.86106    0.21706    1.000
    C6       C        0.97405    0.92683    0.96450    1.000
    H1       H        0.95620    0.87690    0.93960    1.000
    C7       C        0.13458    0.02047    0.16741    1.000
    N4       N        0.17417    0.08877    0.43580    1.000
    C8       C        0.11771    0.74910    0.20134    1.000
    H2       H        0.12680    0.72930    0.25390    1.000
    C9       C        0.10670    0.01520    0.43950    1.000
    H3       H        0.08800    0.98590    0.46020    1.000
    N5       N        0.31699    0.90744    0.27442    1.000
    C10      C        0.25367    0.77160    0.53800    1.000
    H4       H        0.23340    0.73950    0.55750    1.000
    H5       H        0.30060    0.77630    0.58880    1.000
    C11      C        0.22300    0.85340    0.51360    1.000
    H6       H        0.17580    0.84950    0.46350    1.000
    H7       H        0.22840    0.87630    0.56480    1.000
    C12      C        0.12181    0.06950    0.35150    1.000
    H8       H        0.11580    0.08570    0.29990    1.000
    C13      C        0.23376    0.91538    0.40340    1.000
    H9       H        0.19390    0.89540    0.35180    1.000
    C14      C        0.22188    0.22300    0.48630    1.000
    H10      H        0.18030    0.24610    0.43510    1.000
    H11      H        0.22020    0.21890    0.53600    1.000
    C15      C        0.37291    0.91740    0.28680    1.000
    H12      H        0.39210    0.96670    0.29390    1.000
    C16      C        0.31491    0.94290    0.54470    1.000
    H13      H        0.34160    0.94560    0.60750    1.000
    C17      C        0.32807    0.97490    0.49250    1.000
    H14      H        0.36570    0.00440    0.51330    1.000
    N6       N        0.39848    0.84780    0.28790    1.000
    C18      C        0.22880    0.14050    0.46130    1.000
    H15      H        0.22990    0.14430    0.41110    1.000
    H16      H        0.27050    0.11730    0.51230    1.000
    C19      C        0.35570    0.78840    0.27200    1.000
    H17      H        0.35990    0.73390    0.26780    1.000
    C20      C        0.30620    0.82650    0.26370    1.000
    H18      H        0.26950    0.80130    0.25230    1.000
    C21      C        0.16440    0.05460    0.49210    1.000
    H19      H        0.19240    0.05820    0.55490    1.000
    C22      C        0.13665    0.70496    0.15953    1.000
    O5       O        0.18621    0.60199    0.26983    1.000
    C23      C        0.09102    0.80824    0.04706    1.000
    H20      H        0.08210    0.82760    0.99450    1.000
    C24      C        0.12201    0.73487    0.08060    1.000
    H21      H        0.13300    0.70560    0.05000    1.000
    C25      C        0.17055    0.62541    0.19840    1.000
    O6       O        0.18115    0.58680    0.15088    1.000
    C26      C        0.46350    0.84110    0.23490    1.000
    H22      H        0.44040    0.88880    0.19990    1.000
    H23      H        0.43930    0.79530    0.19640    1.000
    C27      C        0.46480    0.83840    0.31070    1.000
    H24      H        0.49390    0.88030    0.35250    1.000
    H25      H        0.48370    0.78790    0.34140    1.000
    Zn2      Zn       0.76811    0.49028    0.29253    1.000
    O7       O        0.64802    0.58122    0.21264    1.000
    O8       O        0.67737    0.46845    0.18604    1.000
    O9       O        0.52094    0.41561    0.17615    1.000
    O10      O        0.58721    0.33866    0.29325    1.000
    C28      C        0.58562    0.32208    0.16803    1.000
    C29      C        0.53766    0.43065    0.04626    1.000
    N7       N        0.77664    0.45699    0.40269    1.000
    C30      C        0.56454    0.50629    0.08235    1.000
    C31      C        0.57301    0.35340    0.08968    1.000
    N8       N        0.57965    0.52446    0.35100    1.000
    N9       N        0.75486    0.40541    0.48797    1.000
    C32      C        0.56368    0.36106    0.21706    1.000
    C33      C        0.47405    0.42683    0.96450    1.000
    H26      H        0.45620    0.37690    0.93960    1.000
    C34      C        0.63458    0.52047    0.16741    1.000
    N10      N        0.67417    0.58877    0.43580    1.000
    C35      C        0.61771    0.24910    0.20134    1.000
    H27      H        0.62680    0.22930    0.25390    1.000
    C36      C        0.60670    0.51520    0.43950    1.000
    H28      H        0.58800    0.48590    0.46020    1.000
    N11      N        0.81699    0.40744    0.27442    1.000
    C37      C        0.75367    0.27160    0.53800    1.000
    H29      H        0.73340    0.23950    0.55750    1.000
    H30      H        0.80060    0.27630    0.58880    1.000
    C38      C        0.72300    0.35340    0.51360    1.000
    H31      H        0.67580    0.34950    0.46350    1.000
    H32      H        0.72840    0.37630    0.56480    1.000
    C39      C        0.62181    0.56950    0.35150    1.000
    H33      H        0.61580    0.58570    0.29990    1.000
    C40      C        0.73376    0.41538    0.40340    1.000
    H34      H        0.69390    0.39540    0.35180    1.000
    C41      C        0.72188    0.72300    0.48630    1.000
    H35      H        0.68030    0.74610    0.43510    1.000
    H36      H        0.72020    0.71890    0.53600    1.000
    C42      C        0.87291    0.41740    0.28680    1.000
    H37      H        0.89210    0.46670    0.29390    1.000
    C43      C        0.81491    0.44290    0.54470    1.000
    H38      H        0.84160    0.44560    0.60750    1.000
    C44      C        0.82807    0.47490    0.49250    1.000
    H39      H        0.86570    0.50440    0.51330    1.000
    N12      N        0.89848    0.34780    0.28790    1.000
    C45      C        0.72880    0.64050    0.46130    1.000
    H40      H        0.72990    0.64430    0.41110    1.000
    H41      H        0.77050    0.61730    0.51230    1.000
    C46      C        0.85570    0.28840    0.27200    1.000
    H42      H        0.85990    0.23390    0.26780    1.000
    C47      C        0.80620    0.32650    0.26370    1.000
    H43      H        0.76950    0.30130    0.25230    1.000
    C48      C        0.66440    0.55460    0.49210    1.000
    H44      H        0.69240    0.55820    0.55490    1.000
    C49      C        0.63665    0.20496    0.15953    1.000
    O11      O        0.68621    0.10199    0.26983    1.000
    C50      C        0.59102    0.30824    0.04706    1.000
    H45      H        0.58210    0.32760    0.99450    1.000
    C51      C        0.62201    0.23487    0.08060    1.000
    H46      H        0.63300    0.20560    0.05000    1.000
    C52      C        0.67055    0.12541    0.19840    1.000
    O12      O        0.68115    0.08680    0.15088    1.000
    C53      C        0.96350    0.34110    0.23490    1.000
    H47      H        0.94040    0.38880    0.19990    1.000
    H48      H        0.93930    0.29530    0.19640    1.000
    C54      C        0.96480    0.33840    0.31070    1.000
    H49      H        0.99390    0.38030    0.35250    1.000
    H50      H        0.98370    0.28790    0.34140    1.000
    Zn3      Zn       0.73189    0.99028    0.20747    1.000
    O13      O        0.85198    0.08122    0.28736    1.000
    O14      O        0.82263    0.96845    0.31396    1.000
    O15      O        0.97906    0.91561    0.32385    1.000
    O16      O        0.91279    0.83866    0.20675    1.000
    C55      C        0.91438    0.82208    0.33197    1.000
    C56      C        0.96234    0.93065    0.45374    1.000
    N13      N        0.72336    0.95699    0.09731    1.000
    C57      C        0.93546    0.00629    0.41765    1.000
    C58      C        0.92699    0.85340    0.41032    1.000
    N14      N        0.92035    0.02446    0.14900    1.000
    N15      N        0.74514    0.90541    0.01203    1.000
    C59      C        0.93632    0.86106    0.28294    1.000
    C60      C        0.02595    0.92683    0.53550    1.000
    H51      H        0.04380    0.87690    0.56040    1.000
    C61      C        0.86542    0.02047    0.33259    1.000
    N16      N        0.82583    0.08877    0.06420    1.000
    C62      C        0.88229    0.74910    0.29866    1.000
    H52      H        0.87320    0.72930    0.24610    1.000
    C63      C        0.89330    0.01520    0.06050    1.000
    H53      H        0.91200    0.98590    0.03980    1.000
    N17      N        0.68301    0.90744    0.22558    1.000
    C64      C        0.74633    0.77160    0.96200    1.000
    H54      H        0.76660    0.73950    0.94250    1.000
    H55      H        0.69940    0.77630    0.91120    1.000
    C65      C        0.77700    0.85340    0.98640    1.000
    H56      H        0.82420    0.84950    0.03650    1.000
    H57      H        0.77160    0.87630    0.93520    1.000
    C66      C        0.87819    0.06950    0.14850    1.000
    H58      H        0.88420    0.08570    0.20010    1.000
    C67      C        0.76624    0.91538    0.09660    1.000
    H59      H        0.80610    0.89540    0.14820    1.000
    C68      C        0.77812    0.22300    0.01370    1.000
    H60      H        0.81970    0.24610    0.06490    1.000
    H61      H        0.77980    0.21890    0.96400    1.000
    C69      C        0.62709    0.91740    0.21320    1.000
    H62      H        0.60790    0.96670    0.20610    1.000
    C70      C        0.68509    0.94290    0.95530    1.000
    H63      H        0.65840    0.94560    0.89250    1.000
    C71      C        0.67193    0.97490    0.00750    1.000
    H64      H        0.63430    0.00440    0.98670    1.000
    N18      N        0.60152    0.84780    0.21210    1.000
    C72      C        0.77120    0.14050    0.03870    1.000
    H65      H        0.77010    0.14430    0.08890    1.000
    H66      H        0.72950    0.11730    0.98770    1.000
    C73      C        0.64430    0.78840    0.22800    1.000
    H67      H        0.64010    0.73390    0.23220    1.000
    C74      C        0.69380    0.82650    0.23630    1.000
    H68      H        0.73050    0.80130    0.24770    1.000
    C75      C        0.83560    0.05460    0.00790    1.000
    H69      H        0.80760    0.05820    0.94510    1.000
    C76      C        0.86335    0.70496    0.34047    1.000
    O17      O        0.81379    0.60199    0.23017    1.000
    C77      C        0.90898    0.80824    0.45294    1.000
    H70      H        0.91790    0.82760    0.50550    1.000
    C78      C        0.87799    0.73487    0.41940    1.000
    H71      H        0.86700    0.70560    0.45000    1.000
    C79      C        0.82945    0.62541    0.30160    1.000
    O18      O        0.81885    0.58680    0.34912    1.000
    C80      C        0.53650    0.84110    0.26510    1.000
    H72      H        0.55960    0.88880    0.30010    1.000
    H73      H        0.56070    0.79530    0.30360    1.000
    C81      C        0.53520    0.83840    0.18930    1.000
    H74      H        0.50610    0.88030    0.14750    1.000
    H75      H        0.51630    0.78790    0.15860    1.000
    Zn4      Zn       0.23189    0.49028    0.20747    1.000
    O19      O        0.35198    0.58122    0.28736    1.000
    O20      O        0.32263    0.46845    0.31396    1.000
    O21      O        0.47906    0.41561    0.32385    1.000
    O22      O        0.41279    0.33866    0.20675    1.000
    C82      C        0.41438    0.32208    0.33197    1.000
    C83      C        0.46234    0.43065    0.45374    1.000
    N19      N        0.22336    0.45699    0.09731    1.000
    C84      C        0.43546    0.50629    0.41765    1.000
    C85      C        0.42699    0.35340    0.41032    1.000
    N20      N        0.42035    0.52446    0.14900    1.000
    N21      N        0.24514    0.40541    0.01203    1.000
    C86      C        0.43632    0.36106    0.28294    1.000
    C87      C        0.52595    0.42683    0.53550    1.000
    H76      H        0.54380    0.37690    0.56040    1.000
    C88      C        0.36542    0.52047    0.33259    1.000
    N22      N        0.32583    0.58877    0.06420    1.000
    C89      C        0.38229    0.24910    0.29866    1.000
    H77      H        0.37320    0.22930    0.24610    1.000
    C90      C        0.39330    0.51520    0.06050    1.000
    H78      H        0.41200    0.48590    0.03980    1.000
    N23      N        0.18301    0.40744    0.22558    1.000
    C91      C        0.24633    0.27160    0.96200    1.000
    H79      H        0.26660    0.23950    0.94250    1.000
    H80      H        0.19940    0.27630    0.91120    1.000
    C92      C        0.27700    0.35340    0.98640    1.000
    H81      H        0.32420    0.34950    0.03650    1.000
    H82      H        0.27160    0.37630    0.93520    1.000
    C93      C        0.37819    0.56950    0.14850    1.000
    H83      H        0.38420    0.58570    0.20010    1.000
    C94      C        0.26624    0.41538    0.09660    1.000
    H84      H        0.30610    0.39540    0.14820    1.000
    C95      C        0.27812    0.72300    0.01370    1.000
    H85      H        0.31970    0.74610    0.06490    1.000
    H86      H        0.27980    0.71890    0.96400    1.000
    C96      C        0.12709    0.41740    0.21320    1.000
    H87      H        0.10790    0.46670    0.20610    1.000
    C97      C        0.18509    0.44290    0.95530    1.000
    H88      H        0.15840    0.44560    0.89250    1.000
    C98      C        0.17193    0.47490    0.00750    1.000
    H89      H        0.13430    0.50440    0.98670    1.000
    N24      N        0.10152    0.34780    0.21210    1.000
    C99      C        0.27120    0.64050    0.03870    1.000
    H90      H        0.27010    0.64430    0.08890    1.000
    H91      H        0.22950    0.61730    0.98770    1.000
    C100     C        0.14430    0.28840    0.22800    1.000
    H92      H        0.14010    0.23390    0.23220    1.000
    C101     C        0.19380    0.32650    0.23630    1.000
    H93      H        0.23050    0.30130    0.24770    1.000
    C102     C        0.33560    0.55460    0.00790    1.000
    H94      H        0.30760    0.55820    0.94510    1.000
    C103     C        0.36335    0.20496    0.34047    1.000
    O23      O        0.31379    0.10199    0.23017    1.000
    C104     C        0.40898    0.30824    0.45294    1.000
    H95      H        0.41790    0.32760    0.50550    1.000
    C105     C        0.37799    0.23487    0.41940    1.000
    H96      H        0.36700    0.20560    0.45000    1.000
    C106     C        0.32945    0.12541    0.30160    1.000
    O24      O        0.31885    0.08680    0.34912    1.000
    C107     C        0.03650    0.34110    0.26510    1.000
    H97      H        0.05960    0.38880    0.30010    1.000
    H98      H        0.06070    0.29530    0.30360    1.000
    C108     C        0.03520    0.33840    0.18930    1.000
    H99      H        0.00610    0.38030    0.14750    1.000
    H100     H        0.01630    0.28790    0.15860    1.000
    Zn5      Zn       0.73189    0.00972    0.70747    1.000
    O25      O        0.85198    0.91878    0.78736    1.000
    O26      O        0.82263    0.03155    0.81396    1.000
    O27      O        0.97906    0.08439    0.82385    1.000
    O28      O        0.91279    0.16134    0.70675    1.000
    C109     C        0.91438    0.17792    0.83197    1.000
    C110     C        0.96234    0.06935    0.95374    1.000
    N25      N        0.72336    0.04301    0.59731    1.000
    C111     C        0.93546    0.99371    0.91765    1.000
    C112     C        0.92699    0.14660    0.91032    1.000
    N26      N        0.92035    0.97554    0.64900    1.000
    N27      N        0.74514    0.09459    0.51203    1.000
    C113     C        0.93632    0.13894    0.78294    1.000
    C114     C        0.02595    0.07317    0.03550    1.000
    H101     H        0.04380    0.12310    0.06040    1.000
    C115     C        0.86542    0.97953    0.83259    1.000
    N28      N        0.82583    0.91123    0.56420    1.000
    C116     C        0.88229    0.25090    0.79866    1.000
    H102     H        0.87320    0.27070    0.74610    1.000
    C117     C        0.89330    0.98480    0.56050    1.000
    H103     H        0.91200    0.01410    0.53980    1.000
    N29      N        0.68301    0.09256    0.72558    1.000
    C118     C        0.74633    0.22840    0.46200    1.000
    H104     H        0.76660    0.26050    0.44250    1.000
    H105     H        0.69940    0.22370    0.41120    1.000
    C119     C        0.77700    0.14660    0.48640    1.000
    H106     H        0.82420    0.15050    0.53650    1.000
    H107     H        0.77160    0.12370    0.43520    1.000
    C120     C        0.87819    0.93050    0.64850    1.000
    H108     H        0.88420    0.91430    0.70010    1.000
    C121     C        0.76624    0.08462    0.59660    1.000
    H109     H        0.80610    0.10460    0.64820    1.000
    C122     C        0.77812    0.77700    0.51370    1.000
    H110     H        0.81970    0.75390    0.56490    1.000
    H111     H        0.77980    0.78110    0.46400    1.000
    C123     C        0.62709    0.08260    0.71320    1.000
    H112     H        0.60790    0.03330    0.70610    1.000
    C124     C        0.68509    0.05710    0.45530    1.000
    H113     H        0.65840    0.05440    0.39250    1.000
    C125     C        0.67193    0.02510    0.50750    1.000
    H114     H        0.63430    0.99560    0.48670    1.000
    N30      N        0.60152    0.15220    0.71210    1.000
    C126     C        0.77120    0.85950    0.53870    1.000
    H115     H        0.77010    0.85570    0.58890    1.000
    H116     H        0.72950    0.88270    0.48770    1.000
    C127     C        0.64430    0.21160    0.72800    1.000
    H117     H        0.64010    0.26610    0.73220    1.000
    C128     C        0.69380    0.17350    0.73630    1.000
    H118     H        0.73050    0.19870    0.74770    1.000
    C129     C        0.83560    0.94540    0.50790    1.000
    H119     H        0.80760    0.94180    0.44510    1.000
    C130     C        0.86335    0.29504    0.84047    1.000
    O29      O        0.81379    0.39801    0.73017    1.000
    C131     C        0.90898    0.19176    0.95294    1.000
    H120     H        0.91790    0.17240    0.00550    1.000
    C132     C        0.87799    0.26513    0.91940    1.000
    H121     H        0.86700    0.29440    0.95000    1.000
    C133     C        0.82945    0.37459    0.80160    1.000
    O30      O        0.81885    0.41320    0.84912    1.000
    C134     C        0.53650    0.15890    0.76510    1.000
    H122     H        0.55960    0.11120    0.80010    1.000
    H123     H        0.56070    0.20470    0.80360    1.000
    C135     C        0.53520    0.16160    0.68930    1.000
    H124     H        0.50610    0.11970    0.64750    1.000
    H125     H        0.51630    0.21210    0.65860    1.000
    Zn6      Zn       0.23189    0.50972    0.70747    1.000
    O31      O        0.35198    0.41878    0.78736    1.000
    O32      O        0.32263    0.53155    0.81396    1.000
    O33      O        0.47906    0.58439    0.82385    1.000
    O34      O        0.41279    0.66134    0.70675    1.000
    C136     C        0.41438    0.67792    0.83197    1.000
    C137     C        0.46234    0.56935    0.95374    1.000
    N31      N        0.22336    0.54301    0.59731    1.000
    C138     C        0.43546    0.49371    0.91765    1.000
    C139     C        0.42699    0.64660    0.91032    1.000
    N32      N        0.42035    0.47554    0.64900    1.000
    N33      N        0.24514    0.59459    0.51203    1.000
    C140     C        0.43632    0.63894    0.78294    1.000
    C141     C        0.52595    0.57317    0.03550    1.000
    H126     H        0.54380    0.62310    0.06040    1.000
    C142     C        0.36542    0.47953    0.83259    1.000
    N34      N        0.32583    0.41123    0.56420    1.000
    C143     C        0.38229    0.75090    0.79866    1.000
    H127     H        0.37320    0.77070    0.74610    1.000
    C144     C        0.39330    0.48480    0.56050    1.000
    H128     H        0.41200    0.51410    0.53980    1.000
    N35      N        0.18301    0.59256    0.72558    1.000
    C145     C        0.24633    0.72840    0.46200    1.000
    H129     H        0.26660    0.76050    0.44250    1.000
    H130     H        0.19940    0.72370    0.41120    1.000
    C146     C        0.27700    0.64660    0.48640    1.000
    H131     H        0.32420    0.65050    0.53650    1.000
    H132     H        0.27160    0.62370    0.43520    1.000
    C147     C        0.37819    0.43050    0.64850    1.000
    H133     H        0.38420    0.41430    0.70010    1.000
    C148     C        0.26624    0.58462    0.59660    1.000
    H134     H        0.30610    0.60460    0.64820    1.000
    C149     C        0.27812    0.27700    0.51370    1.000
    H135     H        0.31970    0.25390    0.56490    1.000
    H136     H        0.27980    0.28110    0.46400    1.000
    C150     C        0.12709    0.58260    0.71320    1.000
    H137     H        0.10790    0.53330    0.70610    1.000
    C151     C        0.18509    0.55710    0.45530    1.000
    H138     H        0.15840    0.55440    0.39250    1.000
    C152     C        0.17193    0.52510    0.50750    1.000
    H139     H        0.13430    0.49560    0.48670    1.000
    N36      N        0.10152    0.65220    0.71210    1.000
    C153     C        0.27120    0.35950    0.53870    1.000
    H140     H        0.27010    0.35570    0.58890    1.000
    H141     H        0.22950    0.38270    0.48770    1.000
    C154     C        0.14430    0.71160    0.72800    1.000
    H142     H        0.14010    0.76610    0.73220    1.000
    C155     C        0.19380    0.67350    0.73630    1.000
    H143     H        0.23050    0.69870    0.74770    1.000
    C156     C        0.33560    0.44540    0.50790    1.000
    H144     H        0.30760    0.44180    0.44510    1.000
    C157     C        0.36335    0.79504    0.84047    1.000
    O35      O        0.31379    0.89801    0.73017    1.000
    C158     C        0.40898    0.69176    0.95294    1.000
    H145     H        0.41790    0.67240    0.00550    1.000
    C159     C        0.37799    0.76513    0.91940    1.000
    H146     H        0.36700    0.79440    0.95000    1.000
    C160     C        0.32945    0.87459    0.80160    1.000
    O36      O        0.31885    0.91320    0.84912    1.000
    C161     C        0.03650    0.65890    0.76510    1.000
    H147     H        0.05960    0.61120    0.80010    1.000
    H148     H        0.06070    0.70470    0.80360    1.000
    C162     C        0.03520    0.66160    0.68930    1.000
    H149     H        0.00610    0.61970    0.64750    1.000
    H150     H        0.01630    0.71210    0.65860    1.000
    Zn7      Zn       0.26811    0.00972    0.79253    1.000
    O37      O        0.14802    0.91878    0.71264    1.000
    O38      O        0.17737    0.03155    0.68604    1.000
    O39      O        0.02094    0.08439    0.67615    1.000
    O40      O        0.08721    0.16134    0.79325    1.000
    C163     C        0.08562    0.17792    0.66803    1.000
    C164     C        0.03766    0.06935    0.54626    1.000
    N37      N        0.27664    0.04301    0.90269    1.000
    C165     C        0.06454    0.99371    0.58235    1.000
    C166     C        0.07301    0.14660    0.58968    1.000
    N38      N        0.07965    0.97554    0.85100    1.000
    N39      N        0.25486    0.09459    0.98797    1.000
    C167     C        0.06368    0.13894    0.71706    1.000
    C168     C        0.97405    0.07317    0.46450    1.000
    H151     H        0.95620    0.12310    0.43960    1.000
    C169     C        0.13458    0.97953    0.66741    1.000
    N40      N        0.17417    0.91123    0.93580    1.000
    C170     C        0.11771    0.25090    0.70134    1.000
    H152     H        0.12680    0.27070    0.75390    1.000
    C171     C        0.10670    0.98480    0.93950    1.000
    H153     H        0.08800    0.01410    0.96020    1.000
    N41      N        0.31699    0.09256    0.77442    1.000
    C172     C        0.25367    0.22840    0.03800    1.000
    H154     H        0.23340    0.26050    0.05750    1.000
    H155     H        0.30060    0.22370    0.08880    1.000
    C173     C        0.22300    0.14660    0.01360    1.000
    H156     H        0.17580    0.15050    0.96350    1.000
    H157     H        0.22840    0.12370    0.06480    1.000
    C174     C        0.12181    0.93050    0.85150    1.000
    H158     H        0.11580    0.91430    0.79990    1.000
    C175     C        0.23376    0.08462    0.90340    1.000
    H159     H        0.19390    0.10460    0.85180    1.000
    C176     C        0.22188    0.77700    0.98630    1.000
    H160     H        0.18030    0.75390    0.93510    1.000
    H161     H        0.22020    0.78110    0.03600    1.000
    C177     C        0.37291    0.08260    0.78680    1.000
    H162     H        0.39210    0.03330    0.79390    1.000
    C178     C        0.31491    0.05710    0.04470    1.000
    H163     H        0.34160    0.05440    0.10750    1.000
    C179     C        0.32807    0.02510    0.99250    1.000
    H164     H        0.36570    0.99560    0.01330    1.000
    N42      N        0.39848    0.15220    0.78790    1.000
    C180     C        0.22880    0.85950    0.96130    1.000
    H165     H        0.22990    0.85570    0.91110    1.000
    H166     H        0.27050    0.88270    0.01230    1.000
    C181     C        0.35570    0.21160    0.77200    1.000
    H167     H        0.35990    0.26610    0.76780    1.000
    C182     C        0.30620    0.17350    0.76370    1.000
    H168     H        0.26950    0.19870    0.75230    1.000
    C183     C        0.16440    0.94540    0.99210    1.000
    H169     H        0.19240    0.94180    0.05490    1.000
    C184     C        0.13665    0.29504    0.65953    1.000
    O41      O        0.18621    0.39801    0.76983    1.000
    C185     C        0.09102    0.19176    0.54706    1.000
    H170     H        0.08210    0.17240    0.49450    1.000
    C186     C        0.12201    0.26513    0.58060    1.000
    H171     H        0.13300    0.29440    0.55000    1.000
    C187     C        0.17055    0.37459    0.69840    1.000
    O42      O        0.18115    0.41320    0.65088    1.000
    C188     C        0.46350    0.15890    0.73490    1.000
    H172     H        0.44040    0.11120    0.69990    1.000
    H173     H        0.43930    0.20470    0.69640    1.000
    C189     C        0.46480    0.16160    0.81070    1.000
    H174     H        0.49390    0.11970    0.85250    1.000
    H175     H        0.48370    0.21210    0.84140    1.000
    Zn8      Zn       0.76811    0.50972    0.79253    1.000
    O43      O        0.64802    0.41878    0.71264    1.000
    O44      O        0.67737    0.53155    0.68604    1.000
    O45      O        0.52094    0.58439    0.67615    1.000
    O46      O        0.58721    0.66134    0.79325    1.000
    C190     C        0.58562    0.67792    0.66803    1.000
    C191     C        0.53766    0.56935    0.54626    1.000
    N43      N        0.77664    0.54301    0.90269    1.000
    C192     C        0.56454    0.49371    0.58235    1.000
    C193     C        0.57301    0.64660    0.58968    1.000
    N44      N        0.57965    0.47554    0.85100    1.000
    N45      N        0.75486    0.59459    0.98797    1.000
    C194     C        0.56368    0.63894    0.71706    1.000
    C195     C        0.47405    0.57317    0.46450    1.000
    H176     H        0.45620    0.62310    0.43960    1.000
    C196     C        0.63458    0.47953    0.66741    1.000
    N46      N        0.67417    0.41123    0.93580    1.000
    C197     C        0.61771    0.75090    0.70134    1.000
    H177     H        0.62680    0.77070    0.75390    1.000
    C198     C        0.60670    0.48480    0.93950    1.000
    H178     H        0.58800    0.51410    0.96020    1.000
    N47      N        0.81699    0.59256    0.77442    1.000
    C199     C        0.75367    0.72840    0.03800    1.000
    H179     H        0.73340    0.76050    0.05750    1.000
    H180     H        0.80060    0.72370    0.08880    1.000
    C200     C        0.72300    0.64660    0.01360    1.000
    H181     H        0.67580    0.65050    0.96350    1.000
    H182     H        0.72840    0.62370    0.06480    1.000
    C201     C        0.62181    0.43050    0.85150    1.000
    H183     H        0.61580    0.41430    0.79990    1.000
    C202     C        0.73376    0.58462    0.90340    1.000
    H184     H        0.69390    0.60460    0.85180    1.000
    C203     C        0.72188    0.27700    0.98630    1.000
    H185     H        0.68030    0.25390    0.93510    1.000
    H186     H        0.72020    0.28110    0.03600    1.000
    C204     C        0.87291    0.58260    0.78680    1.000
    H187     H        0.89210    0.53330    0.79390    1.000
    C205     C        0.81491    0.55710    0.04470    1.000
    H188     H        0.84160    0.55440    0.10750    1.000
    C206     C        0.82807    0.52510    0.99250    1.000
    H189     H        0.86570    0.49560    0.01330    1.000
    N48      N        0.89848    0.65220    0.78790    1.000
    C207     C        0.72880    0.35950    0.96130    1.000
    H190     H        0.72990    0.35570    0.91110    1.000
    H191     H        0.77050    0.38270    0.01230    1.000
    C208     C        0.85570    0.71160    0.77200    1.000
    H192     H        0.85990    0.76610    0.76780    1.000
    C209     C        0.80620    0.67350    0.76370    1.000
    H193     H        0.76950    0.69870    0.75230    1.000
    C210     C        0.66440    0.44540    0.99210    1.000
    H194     H        0.69240    0.44180    0.05490    1.000
    C211     C        0.63665    0.79504    0.65953    1.000
    O47      O        0.68621    0.89801    0.76983    1.000
    C212     C        0.59102    0.69176    0.54706    1.000
    H195     H        0.58210    0.67240    0.49450    1.000
    C213     C        0.62201    0.76513    0.58060    1.000
    H196     H        0.63300    0.79440    0.55000    1.000
    C214     C        0.67055    0.87459    0.69840    1.000
    O48      O        0.68115    0.91320    0.65088    1.000
    C215     C        0.96350    0.65890    0.73490    1.000
    H197     H        0.94040    0.61120    0.69990    1.000
    H198     H        0.93930    0.70470    0.69640    1.000
    C216     C        0.96480    0.66160    0.81070    1.000
    H199     H        0.99390    0.61970    0.85250    1.000
    H200     H        0.98370    0.71210    0.84140    1.000
    Zn9      Zn       0.00000    0.96097    0.25000    1.000
    Zn10     Zn       0.50000    0.46097    0.25000    1.000
    Zn11     Zn       0.00000    0.03903    0.75000    1.000
    Zn12     Zn       0.50000    0.53903    0.75000    1.000
