# CIF file generated by openbabel 3.1.0, see https://openbabel.org
data_I
_chemical_name_common 'POZHUI_ion_b'
_cell_length_a 30.984
_cell_length_b 30.984
_cell_length_c 30.984
_cell_angle_alpha 90
_cell_angle_beta 90
_cell_angle_gamma 90
_space_group_name_H-M_alt 'I m 3 m'
_space_group_name_Hall '-I 4 2 3'
loop_
    _symmetry_equiv_pos_as_xyz
    x,y,z
    -y,x,z
    -x,-y,z
    y,-x,z
    x,-y,-z
    y,x,-z
    -x,y,-z
    -y,-x,-z
    z,x,y
    -x,z,y
    -z,-x,y
    x,-z,y
    z,-x,-y
    x,z,-y
    -z,x,-y
    -x,-z,-y
    y,z,x
    y,-z,-x
    z,y,-x
    -y,z,-x
    -z,-y,-x
    -y,-z,x
    z,-y,x
    -z,y,x
    -x,-y,-z
    y,-x,-z
    x,y,-z
    -y,x,-z
    -x,y,z
    -y,-x,z
    x,-y,z
    y,x,z
    -z,-x,-y
    x,-z,-y
    z,x,-y
    -x,z,-y
    -z,x,y
    -x,-z,y
    z,-x,y
    x,z,y
    -y,-z,-x
    -y,z,x
    -z,-y,x
    y,-z,x
    z,y,x
    y,z,-x
    -z,y,-x
    z,-y,-x
    1/2+x,1/2+y,1/2+z
    1/2-y,1/2+x,1/2+z
    1/2-x,1/2-y,1/2+z
    1/2+y,1/2-x,1/2+z
    1/2+x,1/2-y,1/2-z
    1/2+y,1/2+x,1/2-z
    1/2-x,1/2+y,1/2-z
    1/2-y,1/2-x,1/2-z
    1/2+z,1/2+x,1/2+y
    1/2-x,1/2+z,1/2+y
    1/2-z,1/2-x,1/2+y
    1/2+x,1/2-z,1/2+y
    1/2+z,1/2-x,1/2-y
    1/2+x,1/2+z,1/2-y
    1/2-z,1/2+x,1/2-y
    1/2-x,1/2-z,1/2-y
    1/2+y,1/2+z,1/2+x
    1/2+y,1/2-z,1/2-x
    1/2+z,1/2+y,1/2-x
    1/2-y,1/2+z,1/2-x
    1/2-z,1/2-y,1/2-x
    1/2-y,1/2-z,1/2+x
    1/2+z,1/2-y,1/2+x
    1/2-z,1/2+y,1/2+x
    1/2-x,1/2-y,1/2-z
    1/2+y,1/2-x,1/2-z
    1/2+x,1/2+y,1/2-z
    1/2-y,1/2+x,1/2-z
    1/2-x,1/2+y,1/2+z
    1/2-y,1/2-x,1/2+z
    1/2+x,1/2-y,1/2+z
    1/2+y,1/2+x,1/2+z
    1/2-z,1/2-x,1/2-y
    1/2+x,1/2-z,1/2-y
    1/2+z,1/2+x,1/2-y
    1/2-x,1/2+z,1/2-y
    1/2-z,1/2+x,1/2+y
    1/2-x,1/2-z,1/2+y
    1/2+z,1/2-x,1/2+y
    1/2+x,1/2+z,1/2+y
    1/2-y,1/2-z,1/2-x
    1/2-y,1/2+z,1/2+x
    1/2-z,1/2-y,1/2+x
    1/2+y,1/2-z,1/2+x
    1/2+z,1/2+y,1/2+x
    1/2+y,1/2+z,1/2-x
    1/2-z,1/2+y,1/2-x
    1/2+z,1/2-y,1/2-x
loop_
    _atom_site_label
    _atom_site_type_symbol
    _atom_site_fract_x
    _atom_site_fract_y
    _atom_site_fract_z
    _atom_site_occupancy
    N1       N        0.19313    0.62893    0.13906    1.000
    C2       C        0.17629    0.67146    0.14532    1.000
    C3       C        0.19082    0.70787    0.11803    1.000
    O4       O        0.20754    0.70027    0.08140    1.000
    O5       O        0.18816    0.74661    0.13080    1.000
    N6       N        0.23149    0.53697    0.10417    1.000
    C7       C        0.19351    0.52283    0.08643    1.000
    O8       O        0.16993    0.58960    0.05869    1.000
    O9       O        0.12374    0.53815    0.05981    1.000
    C10      C        0.16164    0.55073    0.06791    1.000
    H11      H        0.15206    0.07648    0.18766    1.000
    H12      H        0.31552    0.52518    0.40123    1.000
    H13      H        0.25255    0.52518    0.34913    1.000
    In14     In       0.25000    0.60506    0.10506    1.000
    C15      C        0.16999    0.60117    0.16999    1.000
    H16      H        0.19328    0.58704    0.19328    1.000
    O17      O        0.18097    0.93527    0.18097    1.000
    C18      C        0.25304    0.50000    0.11507    1.000
    H19      H        0.28484    0.50000    0.12936    1.000
    Mg20     Mg       0.17470    0.00000    0.17470    1.000
    O21      O        0.16891    0.00000    0.23967    1.000
    O22      O        0.16820    0.00000    0.10976    1.000
