# CIF file generated by openbabel 3.1.0, see https://openbabel.org
data_I
_chemical_name_common 'image0'
_cell_length_a 24.633
_cell_length_b 13.038
_cell_length_c 14.725
_cell_angle_alpha 90
_cell_angle_beta 96.69
_cell_angle_gamma 90
_space_group_name_H-M_alt 'P 1'
_space_group_name_Hall 'P 1'
loop_
    _symmetry_equiv_pos_as_xyz
    x,y,z
loop_
    _atom_site_label
    _atom_site_type_symbol
    _atom_site_fract_x
    _atom_site_fract_y
    _atom_site_fract_z
    _atom_site_occupancy
    Eu1      Eu       0.32801    0.70591    0.03101    1.000
    O1       O        0.22539    0.64523    0.96221    1.000
    O2       O        0.29806    0.55320    0.94339    1.000
    O3       O        0.27378    0.34590    0.64886    1.000
    O4       O        0.19544    0.25700    0.62282    1.000
    O5       O        0.91202    0.17630    0.95790    1.000
    O6       O        0.89669    0.33630    0.99370    1.000
    C1       C        0.21311    0.49390    0.86980    1.000
    C2       C        0.23569    0.44310    0.80000    1.000
    H1       H        0.27170    0.45570    0.79010    1.000
    C3       C        0.20437    0.37360    0.74520    1.000
    C4       C        0.15162    0.35060    0.76390    1.000
    H2       H        0.13110    0.30250    0.72800    1.000
    C5       C        0.12892    0.39850    0.83570    1.000
    C6       C        0.15957    0.47340    0.88630    1.000
    H3       H        0.14420    0.50990    0.93120    1.000
    C7       C        0.24778    0.56860    0.92830    1.000
    C8       C        0.22656    0.32150    0.66560    1.000
    C9       C        0.07427    0.36710    0.85880    1.000
    C10      C        0.03893    0.43760    0.89190    1.000
    H4       H        0.04830    0.50670    0.89500    1.000
    C11      C        0.98990    0.40590    0.92010    1.000
    H5       H        0.96650    0.45420    0.94090    1.000
    C12      C        0.97526    0.30370    0.91800    1.000
    C13      C        0.00929    0.23300    0.88250    1.000
    H6       H        0.99930    0.16420    0.87840    1.000
    C14      C        0.05808    0.26460    0.85290    1.000
    H7       H        0.08040    0.21660    0.82880    1.000
    C15      C        0.92493    0.27050    0.95870    1.000
    Eu2      Eu       0.82801    0.20591    0.03101    1.000
    O7       O        0.72539    0.14523    0.96221    1.000
    O8       O        0.79806    0.05320    0.94339    1.000
    O9       O        0.77378    0.84590    0.64886    1.000
    O10      O        0.69544    0.75700    0.62282    1.000
    O11      O        0.41202    0.67630    0.95790    1.000
    O12      O        0.39669    0.83630    0.99370    1.000
    C16      C        0.71311    0.99390    0.86980    1.000
    C17      C        0.73569    0.94310    0.80000    1.000
    H8       H        0.77170    0.95570    0.79010    1.000
    C18      C        0.70437    0.87360    0.74520    1.000
    C19      C        0.65162    0.85060    0.76390    1.000
    H9       H        0.63110    0.80250    0.72800    1.000
    C20      C        0.62892    0.89850    0.83570    1.000
    C21      C        0.65957    0.97340    0.88630    1.000
    H10      H        0.64420    0.00990    0.93120    1.000
    C22      C        0.74778    0.06860    0.92830    1.000
    C23      C        0.72656    0.82150    0.66560    1.000
    C24      C        0.57427    0.86710    0.85880    1.000
    C25      C        0.53893    0.93760    0.89190    1.000
    H11      H        0.54830    0.00670    0.89500    1.000
    C26      C        0.48990    0.90590    0.92010    1.000
    H12      H        0.46650    0.95420    0.94090    1.000
    C27      C        0.47526    0.80370    0.91800    1.000
    C28      C        0.50929    0.73300    0.88250    1.000
    H13      H        0.49930    0.66420    0.87840    1.000
    C29      C        0.55808    0.76460    0.85290    1.000
    H14      H        0.58040    0.71660    0.82880    1.000
    C30      C        0.42493    0.77050    0.95870    1.000
    Eu3      Eu       0.67199    0.70591    0.46899    1.000
    O13      O        0.77461    0.64523    0.53779    1.000
    O14      O        0.70194    0.55320    0.55661    1.000
    O15      O        0.72622    0.34590    0.85114    1.000
    O16      O        0.80456    0.25700    0.87718    1.000
    O17      O        0.08798    0.17630    0.54210    1.000
    O18      O        0.10331    0.33630    0.50630    1.000
    C31      C        0.78689    0.49390    0.63020    1.000
    C32      C        0.76431    0.44310    0.70000    1.000
    H15      H        0.72830    0.45570    0.70990    1.000
    C33      C        0.79563    0.37360    0.75480    1.000
    C34      C        0.84838    0.35060    0.73610    1.000
    H16      H        0.86890    0.30250    0.77200    1.000
    C35      C        0.87108    0.39850    0.66430    1.000
    C36      C        0.84043    0.47340    0.61370    1.000
    H17      H        0.85580    0.50990    0.56880    1.000
    C37      C        0.75222    0.56860    0.57170    1.000
    C38      C        0.77344    0.32150    0.83440    1.000
    C39      C        0.92573    0.36710    0.64120    1.000
    C40      C        0.96107    0.43760    0.60810    1.000
    H18      H        0.95170    0.50670    0.60500    1.000
    C41      C        0.01010    0.40590    0.57990    1.000
    H19      H        0.03350    0.45420    0.55910    1.000
    C42      C        0.02474    0.30370    0.58200    1.000
    C43      C        0.99071    0.23300    0.61750    1.000
    H20      H        0.00070    0.16420    0.62160    1.000
    C44      C        0.94192    0.26460    0.64710    1.000
    H21      H        0.91960    0.21660    0.67120    1.000
    C45      C        0.07507    0.27050    0.54130    1.000
    Eu4      Eu       0.17199    0.20591    0.46899    1.000
    O19      O        0.27461    0.14523    0.53779    1.000
    O20      O        0.20194    0.05320    0.55661    1.000
    O21      O        0.22622    0.84590    0.85114    1.000
    O22      O        0.30456    0.75700    0.87718    1.000
    O23      O        0.58798    0.67630    0.54210    1.000
    O24      O        0.60331    0.83630    0.50630    1.000
    C46      C        0.28689    0.99390    0.63020    1.000
    C47      C        0.26431    0.94310    0.70000    1.000
    H22      H        0.22830    0.95570    0.70990    1.000
    C48      C        0.29563    0.87360    0.75480    1.000
    C49      C        0.34838    0.85060    0.73610    1.000
    H23      H        0.36890    0.80250    0.77200    1.000
    C50      C        0.37108    0.89850    0.66430    1.000
    C51      C        0.34043    0.97340    0.61370    1.000
    H24      H        0.35580    0.00990    0.56880    1.000
    C52      C        0.25222    0.06860    0.57170    1.000
    C53      C        0.27344    0.82150    0.83440    1.000
    C54      C        0.42573    0.86710    0.64120    1.000
    C55      C        0.46107    0.93760    0.60810    1.000
    H25      H        0.45170    0.00670    0.60500    1.000
    C56      C        0.51010    0.90590    0.57990    1.000
    H26      H        0.53350    0.95420    0.55910    1.000
    C57      C        0.52474    0.80370    0.58200    1.000
    C58      C        0.49071    0.73300    0.61750    1.000
    H27      H        0.50070    0.66420    0.62160    1.000
    C59      C        0.44192    0.76460    0.64710    1.000
    H28      H        0.41960    0.71660    0.67120    1.000
    C60      C        0.57507    0.77050    0.54130    1.000
    Eu5      Eu       0.67199    0.29409    0.96899    1.000
    O25      O        0.77461    0.35477    0.03779    1.000
    O26      O        0.70194    0.44680    0.05661    1.000
    O27      O        0.72622    0.65410    0.35114    1.000
    O28      O        0.80456    0.74300    0.37718    1.000
    O29      O        0.08798    0.82370    0.04210    1.000
    O30      O        0.10331    0.66370    0.00630    1.000
    C61      C        0.78689    0.50610    0.13020    1.000
    C62      C        0.76431    0.55690    0.20000    1.000
    H29      H        0.72830    0.54430    0.20990    1.000
    C63      C        0.79563    0.62640    0.25480    1.000
    C64      C        0.84838    0.64940    0.23610    1.000
    H30      H        0.86890    0.69750    0.27200    1.000
    C65      C        0.87108    0.60150    0.16430    1.000
    C66      C        0.84043    0.52660    0.11370    1.000
    H31      H        0.85580    0.49010    0.06880    1.000
    C67      C        0.75222    0.43140    0.07170    1.000
    C68      C        0.77344    0.67850    0.33440    1.000
    C69      C        0.92573    0.63290    0.14120    1.000
    C70      C        0.96107    0.56240    0.10810    1.000
    H32      H        0.95170    0.49330    0.10500    1.000
    C71      C        0.01010    0.59410    0.07990    1.000
    H33      H        0.03350    0.54580    0.05910    1.000
    C72      C        0.02474    0.69630    0.08200    1.000
    C73      C        0.99071    0.76700    0.11750    1.000
    H34      H        0.00070    0.83580    0.12160    1.000
    C74      C        0.94192    0.73540    0.14710    1.000
    H35      H        0.91960    0.78340    0.17120    1.000
    C75      C        0.07507    0.72950    0.04130    1.000
    Eu6      Eu       0.17199    0.79409    0.96899    1.000
    O31      O        0.27461    0.85477    0.03779    1.000
    O32      O        0.20194    0.94680    0.05661    1.000
    O33      O        0.22622    0.15410    0.35114    1.000
    O34      O        0.30456    0.24300    0.37718    1.000
    O35      O        0.58798    0.32370    0.04210    1.000
    O36      O        0.60331    0.16370    0.00630    1.000
    C76      C        0.28689    0.00610    0.13020    1.000
    C77      C        0.26431    0.05690    0.20000    1.000
    H36      H        0.22830    0.04430    0.20990    1.000
    C78      C        0.29563    0.12640    0.25480    1.000
    C79      C        0.34838    0.14940    0.23610    1.000
    H37      H        0.36890    0.19750    0.27200    1.000
    C80      C        0.37108    0.10150    0.16430    1.000
    C81      C        0.34043    0.02660    0.11370    1.000
    H38      H        0.35580    0.99010    0.06880    1.000
    C82      C        0.25222    0.93140    0.07170    1.000
    C83      C        0.27344    0.17850    0.33440    1.000
    C84      C        0.42573    0.13290    0.14120    1.000
    C85      C        0.46107    0.06240    0.10810    1.000
    H39      H        0.45170    0.99330    0.10500    1.000
    C86      C        0.51010    0.09410    0.07990    1.000
    H40      H        0.53350    0.04580    0.05910    1.000
    C87      C        0.52474    0.19630    0.08200    1.000
    C88      C        0.49071    0.26700    0.11750    1.000
    H41      H        0.50070    0.33580    0.12160    1.000
    C89      C        0.44192    0.23540    0.14710    1.000
    H42      H        0.41960    0.28340    0.17120    1.000
    C90      C        0.57507    0.22950    0.04130    1.000
    Eu7      Eu       0.32801    0.29409    0.53101    1.000
    O37      O        0.22539    0.35477    0.46221    1.000
    O38      O        0.29806    0.44680    0.44339    1.000
    O39      O        0.27378    0.65410    0.14886    1.000
    O40      O        0.19544    0.74300    0.12282    1.000
    O41      O        0.91202    0.82370    0.45790    1.000
    O42      O        0.89669    0.66370    0.49370    1.000
    C91      C        0.21311    0.50610    0.36980    1.000
    C92      C        0.23569    0.55690    0.30000    1.000
    H43      H        0.27170    0.54430    0.29010    1.000
    C93      C        0.20437    0.62640    0.24520    1.000
    C94      C        0.15162    0.64940    0.26390    1.000
    H44      H        0.13110    0.69750    0.22800    1.000
    C95      C        0.12892    0.60150    0.33570    1.000
    C96      C        0.15957    0.52660    0.38630    1.000
    H45      H        0.14420    0.49010    0.43120    1.000
    C97      C        0.24778    0.43140    0.42830    1.000
    C98      C        0.22656    0.67850    0.16560    1.000
    C99      C        0.07427    0.63290    0.35880    1.000
    C100     C        0.03893    0.56240    0.39190    1.000
    H46      H        0.04830    0.49330    0.39500    1.000
    C101     C        0.98990    0.59410    0.42010    1.000
    H47      H        0.96650    0.54580    0.44090    1.000
    C102     C        0.97526    0.69630    0.41800    1.000
    C103     C        0.00929    0.76700    0.38250    1.000
    H48      H        0.99930    0.83580    0.37840    1.000
    C104     C        0.05808    0.73540    0.35290    1.000
    H49      H        0.08040    0.78340    0.32880    1.000
    C105     C        0.92493    0.72950    0.45870    1.000
    Eu8      Eu       0.82801    0.79409    0.53101    1.000
    O43      O        0.72539    0.85477    0.46221    1.000
    O44      O        0.79806    0.94680    0.44339    1.000
    O45      O        0.77378    0.15410    0.14886    1.000
    O46      O        0.69544    0.24300    0.12282    1.000
    O47      O        0.41202    0.32370    0.45790    1.000
    O48      O        0.39669    0.16370    0.49370    1.000
    C106     C        0.71311    0.00610    0.36980    1.000
    C107     C        0.73569    0.05690    0.30000    1.000
    H50      H        0.77170    0.04430    0.29010    1.000
    C108     C        0.70437    0.12640    0.24520    1.000
    C109     C        0.65162    0.14940    0.26390    1.000
    H51      H        0.63110    0.19750    0.22800    1.000
    C110     C        0.62892    0.10150    0.33570    1.000
    C111     C        0.65957    0.02660    0.38630    1.000
    H52      H        0.64420    0.99010    0.43120    1.000
    C112     C        0.74778    0.93140    0.42830    1.000
    C113     C        0.72656    0.17850    0.16560    1.000
    C114     C        0.57427    0.13290    0.35880    1.000
    C115     C        0.53893    0.06240    0.39190    1.000
    H53      H        0.54830    0.99330    0.39500    1.000
    C116     C        0.48990    0.09410    0.42010    1.000
    H54      H        0.46650    0.04580    0.44090    1.000
    C117     C        0.47526    0.19630    0.41800    1.000
    C118     C        0.50929    0.26700    0.38250    1.000
    H55      H        0.49930    0.33580    0.37840    1.000
    C119     C        0.55808    0.23540    0.35290    1.000
    H56      H        0.58040    0.28340    0.32880    1.000
    C120     C        0.42493    0.22950    0.45870    1.000
