# CIF file generated by openbabel 3.1.0, see https://openbabel.org
data_I
_chemical_name_common 'image0'
_cell_length_a 17.34
_cell_length_b 6.822
_cell_length_c 12.178
_cell_angle_alpha 90
_cell_angle_beta 90
_cell_angle_gamma 90
_space_group_name_H-M_alt 'P 1'
_space_group_name_Hall 'P 1'
loop_
    _symmetry_equiv_pos_as_xyz
    x,y,z
loop_
    _atom_site_label
    _atom_site_type_symbol
    _atom_site_fract_x
    _atom_site_fract_y
    _atom_site_fract_z
    _atom_site_occupancy
    O1       O        0.08900    0.91300    0.08900    1.000
    O2       O        0.42700    0.91000    0.38800    1.000
    C1       C        0.22900    0.92200    0.19800    1.000
    C2       C        0.29500    0.92000    0.26400    1.000
    O3       O        0.41100    0.08700    0.58900    1.000
    O4       O        0.07300    0.09000    0.88800    1.000
    C3       C        0.27100    0.07800    0.69800    1.000
    C4       C        0.20500    0.08000    0.76400    1.000
    O5       O        0.91100    0.41300    0.91100    1.000
    O6       O        0.57300    0.41000    0.61200    1.000
    C5       C        0.77100    0.42200    0.80200    1.000
    C6       C        0.70500    0.42000    0.73600    1.000
    O7       O        0.58900    0.58700    0.41100    1.000
    O8       O        0.92700    0.59000    0.11200    1.000
    C7       C        0.72900    0.57800    0.30200    1.000
    C8       C        0.79500    0.58000    0.23600    1.000
    O9       O        0.91100    0.08700    0.91100    1.000
    O10      O        0.57300    0.09000    0.61200    1.000
    C9       C        0.77100    0.07800    0.80200    1.000
    C10      C        0.70500    0.08000    0.73600    1.000
    O11      O        0.58900    0.91300    0.41100    1.000
    O12      O        0.92700    0.91000    0.11200    1.000
    C11      C        0.72900    0.92200    0.30200    1.000
    C12      C        0.79500    0.92000    0.23600    1.000
    O13      O        0.08900    0.58700    0.08900    1.000
    O14      O        0.42700    0.59000    0.38800    1.000
    C13      C        0.22900    0.57800    0.19800    1.000
    C14      C        0.29500    0.58000    0.26400    1.000
    O15      O        0.41100    0.41300    0.58900    1.000
    O16      O        0.07300    0.41000    0.88800    1.000
    C15      C        0.27100    0.42200    0.69800    1.000
    C16      C        0.20500    0.42000    0.76400    1.000
    Cr1      Cr       0.00000    0.00000    0.00000    1.000
    Cr2      Cr       0.50000    0.00000    0.50000    1.000
    Cr3      Cr       0.00000    0.50000    0.00000    1.000
    Cr4      Cr       0.50000    0.50000    0.50000    1.000
    O17      O        0.00200    0.75000    0.92200    1.000
    C17      C        0.39200    0.75000    0.35700    1.000
    C18      C        0.12300    0.75000    0.11700    1.000
    C19      C        0.32900    0.75000    0.28700    1.000
    C20      C        0.19100    0.75000    0.18000    1.000
    O18      O        0.49800    0.25000    0.42200    1.000
    C21      C        0.10800    0.25000    0.85700    1.000
    C22      C        0.37700    0.25000    0.61700    1.000
    C23      C        0.17100    0.25000    0.78700    1.000
    C24      C        0.30900    0.25000    0.68000    1.000
    O19      O        0.99800    0.25000    0.07800    1.000
    C25      C        0.60800    0.25000    0.64300    1.000
    C26      C        0.87700    0.25000    0.88300    1.000
    C27      C        0.67100    0.25000    0.71300    1.000
    C28      C        0.80900    0.25000    0.82000    1.000
    O20      O        0.50200    0.75000    0.57800    1.000
    C29      C        0.89200    0.75000    0.14300    1.000
    C30      C        0.62300    0.75000    0.38300    1.000
    C31      C        0.82900    0.75000    0.21300    1.000
    C32      C        0.69100    0.75000    0.32000    1.000
