# CIF file generated by openbabel 3.1.0, see https://openbabel.org
data_I
_chemical_name_common 'LICSUM_clean'
_cell_length_a 6.8604
_cell_length_b 9.9925
_cell_length_c 10.8841
_cell_angle_alpha 90
_cell_angle_beta 90
_cell_angle_gamma 90
_space_group_name_H-M_alt 'P 1'
_space_group_name_Hall 'P 1'
loop_
    _symmetry_equiv_pos_as_xyz
    x,y,z
loop_
    _atom_site_label
    _atom_site_type_symbol
    _atom_site_fract_x
    _atom_site_fract_y
    _atom_site_fract_z
    _atom_site_occupancy
    Mg1      Mg       0.85759    0.20318    0.28934    1.000
    Mg2      Mg       0.64241    0.79682    0.78934    1.000
    Mg3      Mg       0.14241    0.70318    0.21066    1.000
    Mg4      Mg       0.35759    0.29682    0.71066    1.000
    H1       H        0.56000    0.89200    0.31100    1.000
    H2       H        0.67400    0.92100    0.42800    1.000
    H3       H        0.53200    0.08500    0.51300    1.000
    H4       H        0.37100    0.12500    0.41700    1.000
    H5       H        0.94000    0.10800    0.81100    1.000
    H6       H        0.82600    0.07900    0.92800    1.000
    H7       H        0.96800    0.91500    0.01300    1.000
    H8       H        0.12900    0.87500    0.91700    1.000
    H9       H        0.44000    0.39200    0.18900    1.000
    H10      H        0.32600    0.42100    0.07200    1.000
    H11      H        0.46800    0.58500    0.98700    1.000
    H12      H        0.62900    0.62500    0.08300    1.000
    H13      H        0.06000    0.60800    0.68900    1.000
    H14      H        0.17400    0.57900    0.57200    1.000
    H15      H        0.03200    0.41500    0.48700    1.000
    H16      H        0.87100    0.37500    0.58300    1.000
    C1       C        0.85200    0.91614    0.27633    1.000
    C2       C        0.54660    0.28070    0.45012    1.000
    C3       C        0.66220    0.94220    0.34390    1.000
    C4       C        0.50220    0.13240    0.43440    1.000
    C5       C        0.64800    0.08386    0.77633    1.000
    C6       C        0.95340    0.71930    0.95012    1.000
    C7       C        0.83780    0.05780    0.84390    1.000
    C8       C        0.99780    0.86760    0.93440    1.000
    C9       C        0.14800    0.41614    0.22367    1.000
    C10      C        0.45340    0.78070    0.04988    1.000
    C11      C        0.33780    0.44220    0.15610    1.000
    C12      C        0.49780    0.63240    0.06560    1.000
    C13      C        0.35200    0.58386    0.72367    1.000
    C14      C        0.04660    0.21930    0.54988    1.000
    C15      C        0.16220    0.55780    0.65610    1.000
    C16      C        0.00220    0.36760    0.56560    1.000
    O1       O        0.62180    0.08210    0.33820    1.000
    O2       O        0.89760    0.79405    0.26557    1.000
    O3       O        0.46630    0.34167    0.53657    1.000
    O4       O        0.66200    0.33430    0.37449    1.000
    O5       O        0.94810    0.01252    0.23739    1.000
    O6       O        0.87820    0.91790    0.83820    1.000
    O7       O        0.60240    0.20595    0.76557    1.000
    O8       O        0.03370    0.65833    0.03657    1.000
    O9       O        0.83800    0.66570    0.87449    1.000
    O10      O        0.55190    0.98748    0.73739    1.000
    O11      O        0.37820    0.58210    0.16180    1.000
    O12      O        0.10240    0.29405    0.23443    1.000
    O13      O        0.53370    0.84167    0.96343    1.000
    O14      O        0.33800    0.83430    0.12551    1.000
    O15      O        0.05190    0.51252    0.26261    1.000
    O16      O        0.12180    0.41790    0.66180    1.000
    O17      O        0.39760    0.70595    0.73443    1.000
    O18      O        0.96630    0.15833    0.46343    1.000
    O19      O        0.16200    0.16570    0.62551    1.000
    O20      O        0.44810    0.48748    0.76261    1.000
