# CIF file generated by openbabel 3.1.0, see https://openbabel.org
data_I
_chemical_name_common 'image0'
_cell_length_a 8.579
_cell_length_b 10.184
_cell_length_c 11.107
_cell_angle_alpha 64.78
_cell_angle_beta 71.73
_cell_angle_gamma 79.3
_space_group_name_H-M_alt 'P 1'
_space_group_name_Hall 'P 1'
loop_
    _symmetry_equiv_pos_as_xyz
    x,y,z
loop_
    _atom_site_label
    _atom_site_type_symbol
    _atom_site_fract_x
    _atom_site_fract_y
    _atom_site_fract_z
    _atom_site_occupancy
    Tb1      Tb       0.13200    0.93860    0.15515    1.000
    O1       O        0.39670    0.80170    0.19380    1.000
    O2       O        0.17680    0.76310    0.37000    1.000
    O3       O        0.12930    0.70740    0.14660    1.000
    O4       O        0.03090    0.86830    0.97760    1.000
    O5       O        0.94160    0.02000    0.32780    1.000
    O6       O        0.84320    0.87920    0.26700    1.000
    C1       C        0.41680    0.61130    0.41140    1.000
    C2       C        0.33670    0.53710    0.54870    1.000
    H1       H        0.22640    0.56130    0.58180    1.000
    C3       C        0.58110    0.57250    0.36280    1.000
    H2       H        0.63590    0.62020    0.27060    1.000
    C4       C        0.32500    0.73190    0.31940    1.000
    C5       C        0.03150    0.61570    0.02200    1.000
    C6       C        0.03910    0.63280    0.89010    1.000
    H3       H        0.06520    0.72140    0.81650    1.000
    C7       C        0.99240    0.48290    0.13250    1.000
    H4       H        0.98740    0.47160    0.22120    1.000
    C8       C        0.06470    0.73830    0.05040    1.000
    C9       C        0.65600    0.98070    0.41890    1.000
    C10      C        0.52480    0.91220    0.42840    1.000
    H5       H        0.54140    0.85330    0.38000    1.000
    C11      C        0.63180    0.06960    0.49050    1.000
    H6       H        0.71910    0.11630    0.48430    1.000
    C12      C        0.82400    0.95840    0.33330    1.000
    Tb2      Tb       0.86801    0.06140    0.84484    1.000
    O7       O        0.60330    0.19830    0.80620    1.000
    O8       O        0.82320    0.23690    0.63000    1.000
    O9       O        0.87070    0.29260    0.85340    1.000
    O10      O        0.96910    0.13170    0.02240    1.000
    O11      O        0.05840    0.98000    0.67220    1.000
    O12      O        0.15680    0.12080    0.73300    1.000
    C13      C        0.58320    0.38870    0.58860    1.000
    C14      C        0.66330    0.46290    0.45130    1.000
    H7       H        0.77360    0.43870    0.41820    1.000
    C15      C        0.41890    0.42750    0.63720    1.000
    H8       H        0.36410    0.37980    0.72940    1.000
    C16      C        0.67500    0.26810    0.68060    1.000
    C17      C        0.96850    0.38430    0.97800    1.000
    C18      C        0.96090    0.36720    0.10990    1.000
    H9       H        0.93480    0.27860    0.18350    1.000
    C19      C        0.00760    0.51710    0.86750    1.000
    H10      H        0.01260    0.52840    0.77880    1.000
    C20      C        0.93530    0.26170    0.94960    1.000
    C21      C        0.34400    0.01930    0.58110    1.000
    C22      C        0.47520    0.08780    0.57160    1.000
    H11      H        0.45860    0.14670    0.62000    1.000
    C23      C        0.36820    0.93040    0.50950    1.000
    H12      H        0.28090    0.88370    0.51570    1.000
    C24      C        0.17600    0.04160    0.66670    1.000
