# CIF file generated by openbabel 3.1.0, see https://openbabel.org
data_I
_chemical_name_common 'image0'
_cell_length_a 11.5377
_cell_length_b 20.7238
_cell_length_c 23.5844
_cell_angle_alpha 90
_cell_angle_beta 90
_cell_angle_gamma 90
_space_group_name_H-M_alt 'P 1'
_space_group_name_Hall 'P 1'
loop_
    _symmetry_equiv_pos_as_xyz
    x,y,z
loop_
    _atom_site_label
    _atom_site_type_symbol
    _atom_site_fract_x
    _atom_site_fract_y
    _atom_site_fract_z
    _atom_site_occupancy
    Gd1      Gd       0.58132    0.96430    0.26826    1.000
    C1       C        0.75580    0.95550    0.38380    1.000
    N1       N        0.86100    0.91770    0.46850    1.000
    H1       H        0.85960    0.91510    0.50620    1.000
    H2       H        0.92320    0.93990    0.45760    1.000
    H3       H        0.86400    0.87820    0.45380    1.000
    Gd2      Gd       0.91644    0.97318    0.26563    1.000
    C2       C        0.75520    0.95080    0.44840    1.000
    H4       H        0.68650    0.92690    0.46090    1.000
    N2       N        0.38010    0.75440    0.27780    1.000
    H5       H        0.34960    0.71830    0.29180    1.000
    H6       H        0.33910    0.76720    0.24790    1.000
    H7       H        0.37880    0.78510    0.30420    1.000
    Gd3      Gd       0.75622    0.87716    0.15220    1.000
    C3       C        0.75110    0.01920    0.47140    1.000
    H8       H        0.81800    0.04250    0.45730    1.000
    H9       H        0.68250    0.04030    0.45650    1.000
    N3       N        0.89680    0.67980    0.20560    1.000
    H10      H        0.86660    0.71470    0.18930    1.000
    H11      H        0.85050    0.66670    0.23360    1.000
    H12      H        0.90360    0.64850    0.18000    1.000
    Gd4      Gd       0.73558    0.06678    0.15727    1.000
    C4       C        0.74920    0.02460    0.53560    1.000
    C5       C        0.55450    0.80440    0.23640    1.000
    C6       C        0.50260    0.74200    0.26020    1.000
    H13      H        0.54650    0.73060    0.29430    1.000
    C7       C        0.50870    0.68600    0.22080    1.000
    H14      H        0.58810    0.68140    0.20790    1.000
    H15      H        0.46130    0.69540    0.18780    1.000
    C8       C        0.46940    0.62180    0.24590    1.000
    C9       C        0.06700    0.63630    0.25750    1.000
    C10      C        0.01620    0.69610    0.22970    1.000
    H16      H        0.06660    0.70800    0.19790    1.000
    C11      C        0.00880    0.75380    0.26940    1.000
    H17      H        0.95830    0.74260    0.30070    1.000
    H18      H        0.08530    0.76170    0.28490    1.000
    C12      C        0.96520    0.81580    0.24350    1.000
    O1       O        0.75360    0.90511    0.25095    1.000
    H19      H        0.75760    0.86650    0.27490    1.000
    O2       O        0.74340    0.03340    0.25634    1.000
    H20      H        0.74120    0.07030    0.28230    1.000
    O3       O        0.86180    0.97540    0.16925    1.000
    H21      H        0.92970    0.97860    0.14450    1.000
    O4       O        0.62580    0.96850    0.17074    1.000
    H22      H        0.55610    0.96720    0.14700    1.000
    O5       O        0.85310    0.95760    0.35980    1.000
    O6       O        0.65920    0.95890    0.36080    1.000
    O7       O        0.74470    0.07990    0.55682    1.000
    O8       O        0.75420    0.97280    0.56317    1.000
    O9       O        0.51340    0.85680    0.25590    1.000
    O10      O        0.63300    0.79850    0.20170    1.000
    O11      O        0.41240    0.62430    0.29220    1.000
    O12      O        0.49620    0.57140    0.22090    1.000
    O13      O        0.02320    0.58330    0.24300    1.000
    O14      O        0.14980    0.64450    0.28870    1.000
    O15      O        0.99410    0.86710    0.26680    1.000
    O16      O        0.89750    0.81120    0.20170    1.000
    Gd5      Gd       0.91868    0.03570    0.76826    1.000
    C13      C        0.74420    0.04450    0.88380    1.000
    N4       N        0.63900    0.08230    0.96850    1.000
    H23      H        0.64040    0.08490    0.00620    1.000
    H24      H        0.57680    0.06010    0.95760    1.000
    H25      H        0.63600    0.12180    0.95380    1.000
    Gd6      Gd       0.58356    0.02682    0.76563    1.000
    C14      C        0.74480    0.04920    0.94840    1.000
    H26      H        0.81350    0.07310    0.96090    1.000
    N5       N        0.11990    0.24560    0.77780    1.000
    H27      H        0.15040    0.28170    0.79180    1.000
    H28      H        0.16090    0.23280    0.74790    1.000
    H29      H        0.12120    0.21490    0.80420    1.000
    Gd7      Gd       0.74378    0.12284    0.65220    1.000
    C15      C        0.74890    0.98080    0.97140    1.000
    H30      H        0.68200    0.95750    0.95730    1.000
    H31      H        0.81750    0.95970    0.95650    1.000
    N6       N        0.60320    0.32020    0.70560    1.000
    H32      H        0.63340    0.28530    0.68930    1.000
    H33      H        0.64950    0.33330    0.73360    1.000
    H34      H        0.59640    0.35150    0.68000    1.000
    Gd8      Gd       0.76442    0.93322    0.65727    1.000
    C16      C        0.75080    0.97540    0.03560    1.000
    C17      C        0.94550    0.19560    0.73640    1.000
    C18      C        0.99740    0.25800    0.76020    1.000
    H35      H        0.95350    0.26940    0.79430    1.000
    C19      C        0.99130    0.31400    0.72080    1.000
    H36      H        0.91190    0.31860    0.70790    1.000
    H37      H        0.03870    0.30460    0.68780    1.000
    C20      C        0.03060    0.37820    0.74590    1.000
    C21      C        0.43300    0.36370    0.75750    1.000
    C22      C        0.48380    0.30390    0.72970    1.000
    H38      H        0.43340    0.29200    0.69790    1.000
    C23      C        0.49120    0.24620    0.76940    1.000
    H39      H        0.54170    0.25740    0.80070    1.000
    H40      H        0.41470    0.23830    0.78490    1.000
    C24      C        0.53480    0.18420    0.74350    1.000
    O17      O        0.74640    0.09489    0.75095    1.000
    H41      H        0.74240    0.13350    0.77490    1.000
    O18      O        0.75660    0.96660    0.75634    1.000
    H42      H        0.75880    0.92970    0.78230    1.000
    O19      O        0.63820    0.02460    0.66925    1.000
    H43      H        0.57030    0.02140    0.64450    1.000
    O20      O        0.87420    0.03150    0.67074    1.000
    H44      H        0.94390    0.03280    0.64700    1.000
    O21      O        0.64690    0.04240    0.85980    1.000
    O22      O        0.84080    0.04110    0.86080    1.000
    O23      O        0.75530    0.92010    0.05682    1.000
    O24      O        0.74580    0.02720    0.06317    1.000
    O25      O        0.98660    0.14320    0.75590    1.000
    O26      O        0.86700    0.20150    0.70170    1.000
    O27      O        0.08760    0.37570    0.79220    1.000
    O28      O        0.00380    0.42860    0.72090    1.000
    O29      O        0.47680    0.41670    0.74300    1.000
    O30      O        0.35020    0.35550    0.78870    1.000
    O31      O        0.50590    0.13290    0.76680    1.000
    O32      O        0.60250    0.18880    0.70170    1.000
    Gd9      Gd       0.41868    0.46430    0.23174    1.000
    C25      C        0.24420    0.45550    0.11620    1.000
    N7       N        0.13900    0.41770    0.03150    1.000
    H45      H        0.14040    0.41510    0.99380    1.000
    H46      H        0.07680    0.43990    0.04240    1.000
    H47      H        0.13600    0.37820    0.04620    1.000
    Gd10     Gd       0.08356    0.47318    0.23437    1.000
    C26      C        0.24480    0.45080    0.05160    1.000
    H48      H        0.31350    0.42690    0.03910    1.000
    N8       N        0.61990    0.25440    0.22220    1.000
    H49      H        0.65040    0.21830    0.20820    1.000
    H50      H        0.66090    0.26720    0.25210    1.000
    H51      H        0.62120    0.28510    0.19580    1.000
    Gd11     Gd       0.24378    0.37716    0.34780    1.000
    C27      C        0.24890    0.51920    0.02860    1.000
    H52      H        0.18200    0.54250    0.04270    1.000
    H53      H        0.31750    0.54030    0.04350    1.000
    N9       N        0.10320    0.17980    0.29440    1.000
    H54      H        0.13340    0.21470    0.31070    1.000
    H55      H        0.14950    0.16670    0.26640    1.000
    H56      H        0.09640    0.14850    0.32000    1.000
    Gd12     Gd       0.26442    0.56678    0.34273    1.000
    C28      C        0.25080    0.52460    0.96440    1.000
    C29      C        0.44550    0.30440    0.26360    1.000
    C30      C        0.49740    0.24200    0.23980    1.000
    H57      H        0.45350    0.23060    0.20570    1.000
    C31      C        0.49130    0.18600    0.27920    1.000
    H58      H        0.41190    0.18140    0.29210    1.000
    H59      H        0.53870    0.19540    0.31220    1.000
    C32      C        0.53060    0.12180    0.25410    1.000
    C33      C        0.93300    0.13630    0.24250    1.000
    C34      C        0.98380    0.19610    0.27030    1.000
    H60      H        0.93340    0.20800    0.30210    1.000
    C35      C        0.99120    0.25380    0.23060    1.000
    H61      H        0.04170    0.24260    0.19930    1.000
    H62      H        0.91470    0.26170    0.21510    1.000
    C36      C        0.03480    0.31580    0.25650    1.000
    O33      O        0.24640    0.40511    0.24905    1.000
    H63      H        0.24240    0.36650    0.22510    1.000
    O34      O        0.25660    0.53340    0.24366    1.000
    H64      H        0.25880    0.57030    0.21770    1.000
    O35      O        0.13820    0.47540    0.33075    1.000
    H65      H        0.07030    0.47860    0.35550    1.000
    O36      O        0.37420    0.46850    0.32926    1.000
    H66      H        0.44390    0.46720    0.35300    1.000
    O37      O        0.14690    0.45760    0.14020    1.000
    O38      O        0.34080    0.45890    0.13920    1.000
    O39      O        0.25530    0.57990    0.94318    1.000
    O40      O        0.24580    0.47280    0.93683    1.000
    O41      O        0.48660    0.35680    0.24410    1.000
    O42      O        0.36700    0.29850    0.29830    1.000
    O43      O        0.58760    0.12430    0.20780    1.000
    O44      O        0.50380    0.07140    0.27910    1.000
    O45      O        0.97680    0.08330    0.25700    1.000
    O46      O        0.85020    0.14450    0.21130    1.000
    O47      O        0.00590    0.36710    0.23320    1.000
    O48      O        0.10250    0.31120    0.29830    1.000
    Gd13     Gd       0.08132    0.53570    0.73174    1.000
    C37      C        0.25580    0.54450    0.61620    1.000
    N10      N        0.36100    0.58230    0.53150    1.000
    H67      H        0.35960    0.58490    0.49380    1.000
    H68      H        0.42320    0.56010    0.54240    1.000
    H69      H        0.36400    0.62180    0.54620    1.000
    Gd14     Gd       0.41644    0.52682    0.73437    1.000
    C38      C        0.25520    0.54920    0.55160    1.000
    H70      H        0.18650    0.57310    0.53910    1.000
    N11      N        0.88010    0.74560    0.72220    1.000
    H71      H        0.84960    0.78170    0.70820    1.000
    H72      H        0.83910    0.73280    0.75210    1.000
    H73      H        0.87880    0.71490    0.69580    1.000
    Gd15     Gd       0.25622    0.62284    0.84780    1.000
    C39      C        0.25110    0.48080    0.52860    1.000
    H74      H        0.31800    0.45750    0.54270    1.000
    H75      H        0.18250    0.45970    0.54350    1.000
    N12      N        0.39680    0.82020    0.79440    1.000
    H76      H        0.36660    0.78530    0.81070    1.000
    H77      H        0.35050    0.83330    0.76640    1.000
    H78      H        0.40360    0.85150    0.82000    1.000
    Gd16     Gd       0.23558    0.43322    0.84273    1.000
    C40      C        0.24920    0.47540    0.46440    1.000
    C41      C        0.05450    0.69560    0.76360    1.000
    C42      C        0.00260    0.75800    0.73980    1.000
    H79      H        0.04650    0.76940    0.70570    1.000
    C43      C        0.00870    0.81400    0.77920    1.000
    H80      H        0.08810    0.81860    0.79210    1.000
    H81      H        0.96130    0.80460    0.81220    1.000
    C44      C        0.96940    0.87820    0.75410    1.000
    C45      C        0.56700    0.86370    0.74250    1.000
    C46      C        0.51620    0.80390    0.77030    1.000
    H82      H        0.56660    0.79200    0.80210    1.000
    C47      C        0.50880    0.74620    0.73060    1.000
    H83      H        0.45830    0.75740    0.69930    1.000
    H84      H        0.58530    0.73830    0.71510    1.000
    C48      C        0.46520    0.68420    0.75650    1.000
    O49      O        0.25360    0.59489    0.74905    1.000
    H85      H        0.25760    0.63350    0.72510    1.000
    O50      O        0.24340    0.46660    0.74366    1.000
    H86      H        0.24120    0.42970    0.71770    1.000
    O51      O        0.36180    0.52460    0.83075    1.000
    H87      H        0.42970    0.52140    0.85550    1.000
    O52      O        0.12580    0.53150    0.82926    1.000
    H88      H        0.05610    0.53280    0.85300    1.000
    O53      O        0.35310    0.54240    0.64020    1.000
    O54      O        0.15920    0.54110    0.63920    1.000
    O55      O        0.24470    0.42010    0.44318    1.000
    O56      O        0.25420    0.52720    0.43683    1.000
    O57      O        0.01340    0.64320    0.74410    1.000
    O58      O        0.13300    0.70150    0.79830    1.000
    O59      O        0.91240    0.87570    0.70780    1.000
    O60      O        0.99620    0.92860    0.77910    1.000
    O61      O        0.52320    0.91670    0.75700    1.000
    O62      O        0.64980    0.85550    0.71130    1.000
    O63      O        0.49410    0.63290    0.73320    1.000
    O64      O        0.39750    0.68880    0.79830    1.000
