# CIF file generated by openbabel 3.1.0, see https://openbabel.org
data_I
_chemical_name_common 'image0'
_cell_length_a 21.617
_cell_length_b 8.2378
_cell_length_c 23.158
_cell_angle_alpha 90
_cell_angle_beta 99.426
_cell_angle_gamma 90
_space_group_name_H-M_alt 'P 1'
_space_group_name_Hall 'P 1'
loop_
    _symmetry_equiv_pos_as_xyz
    x,y,z
loop_
    _atom_site_label
    _atom_site_type_symbol
    _atom_site_fract_x
    _atom_site_fract_y
    _atom_site_fract_z
    _atom_site_occupancy
    C1       C        0.17230    0.78510    0.17800    1.000
    C2       C        0.04920    0.99240    0.07020    1.000
    C3       C        0.09240    0.88300    0.09750    1.000
    H1       H        0.09880    0.78630    0.07860    1.000
    C4       C        0.25970    0.70310    0.35880    1.000
    C5       C        0.26300    0.50280    0.43880    1.000
    H2       H        0.23620    0.43890    0.41270    1.000
    C6       C        0.32540    0.53910    0.53310    1.000
    H3       H        0.34160    0.49820    0.56990    1.000
    C7       C        0.12690    0.91320    0.15260    1.000
    C8       C        0.28160    0.65220    0.42150    1.000
    C9       C        0.28400    0.44690    0.49520    1.000
    C10      C        0.04320    0.14030    0.09520    1.000
    H4       H        0.01650    0.21860    0.07590    1.000
    C11      C        0.32250    0.75140    0.45960    1.000
    C12      C        0.34370    0.69390    0.51700    1.000
    H5       H        0.36950    0.75830    0.54390    1.000
    C13      C        0.07790    0.17180    0.15010    1.000
    H6       H        0.07140    0.26910    0.16860    1.000
    C14      C        0.12170    0.06370    0.17830    1.000
    Lu1      Lu       0.24790    0.53693    0.22855    1.000
    N1       N        0.01810    0.94830    0.01290    1.000
    N2       N        0.26460    0.30100    0.51840    1.000
    O1       O        0.23790    0.58790    0.32210    1.000
    O2       O        0.15460    0.10430    0.22940    1.000
    O3       O        0.21220    0.80930    0.22490    1.000
    O4       O        0.16840    0.64380    0.15530    1.000
    O5       O        0.27070    0.84930    0.34500    1.000
    O6       O        0.33990    0.89900    0.44590    1.000
    C15      C        0.67230    0.28510    0.17800    1.000
    C16      C        0.54920    0.49240    0.07020    1.000
    C17      C        0.59240    0.38300    0.09750    1.000
    H7       H        0.59880    0.28630    0.07860    1.000
    C18      C        0.75970    0.20310    0.35880    1.000
    C19      C        0.76300    0.00280    0.43880    1.000
    H8       H        0.73620    0.93890    0.41270    1.000
    C20      C        0.82540    0.03910    0.53310    1.000
    H9       H        0.84160    0.99820    0.56990    1.000
    C21      C        0.62690    0.41320    0.15260    1.000
    C22      C        0.78160    0.15220    0.42150    1.000
    C23      C        0.78400    0.94690    0.49520    1.000
    C24      C        0.54320    0.64030    0.09520    1.000
    H10      H        0.51650    0.71860    0.07590    1.000
    C25      C        0.82250    0.25140    0.45960    1.000
    C26      C        0.84370    0.19390    0.51700    1.000
    H11      H        0.86950    0.25830    0.54390    1.000
    C27      C        0.57790    0.67180    0.15010    1.000
    H12      H        0.57140    0.76910    0.16860    1.000
    C28      C        0.62170    0.56370    0.17830    1.000
    Lu2      Lu       0.74790    0.03693    0.22855    1.000
    N3       N        0.51810    0.44830    0.01290    1.000
    N4       N        0.76460    0.80100    0.51840    1.000
    O7       O        0.73790    0.08790    0.32210    1.000
    O8       O        0.65460    0.60430    0.22940    1.000
    O9       O        0.71220    0.30930    0.22490    1.000
    O10      O        0.66840    0.14380    0.15530    1.000
    O11      O        0.77070    0.34930    0.34500    1.000
    O12      O        0.83990    0.39900    0.44590    1.000
    C29      C        0.82770    0.78510    0.32200    1.000
    C30      C        0.95080    0.99240    0.42980    1.000
    C31      C        0.90760    0.88300    0.40250    1.000
    H13      H        0.90120    0.78630    0.42140    1.000
    C32      C        0.74030    0.70310    0.14120    1.000
    C33      C        0.73700    0.50280    0.06120    1.000
    H14      H        0.76380    0.43890    0.08730    1.000
    C34      C        0.67460    0.53910    0.96690    1.000
    H15      H        0.65840    0.49820    0.93010    1.000
    C35      C        0.87310    0.91320    0.34740    1.000
    C36      C        0.71840    0.65220    0.07850    1.000
    C37      C        0.71600    0.44690    0.00480    1.000
    C38      C        0.95680    0.14030    0.40480    1.000
    H16      H        0.98350    0.21860    0.42410    1.000
    C39      C        0.67750    0.75140    0.04040    1.000
    C40      C        0.65630    0.69390    0.98300    1.000
    H17      H        0.63050    0.75830    0.95610    1.000
    C41      C        0.92210    0.17180    0.34990    1.000
    H18      H        0.92860    0.26910    0.33140    1.000
    C42      C        0.87830    0.06370    0.32170    1.000
    Lu3      Lu       0.75210    0.53693    0.27145    1.000
    N5       N        0.98190    0.94830    0.48710    1.000
    N6       N        0.73540    0.30100    0.98160    1.000
    O13      O        0.76210    0.58790    0.17790    1.000
    O14      O        0.84540    0.10430    0.27060    1.000
    O15      O        0.78780    0.80930    0.27510    1.000
    O16      O        0.83160    0.64380    0.34470    1.000
    O17      O        0.72930    0.84930    0.15500    1.000
    O18      O        0.66010    0.89900    0.05410    1.000
    C43      C        0.32770    0.28510    0.32200    1.000
    C44      C        0.45080    0.49240    0.42980    1.000
    C45      C        0.40760    0.38300    0.40250    1.000
    H19      H        0.40120    0.28630    0.42140    1.000
    C46      C        0.24030    0.20310    0.14120    1.000
    C47      C        0.23700    0.00280    0.06120    1.000
    H20      H        0.26380    0.93890    0.08730    1.000
    C48      C        0.17460    0.03910    0.96690    1.000
    H21      H        0.15840    0.99820    0.93010    1.000
    C49      C        0.37310    0.41320    0.34740    1.000
    C50      C        0.21840    0.15220    0.07850    1.000
    C51      C        0.21600    0.94690    0.00480    1.000
    C52      C        0.45680    0.64030    0.40480    1.000
    H22      H        0.48350    0.71860    0.42410    1.000
    C53      C        0.17750    0.25140    0.04040    1.000
    C54      C        0.15630    0.19390    0.98300    1.000
    H23      H        0.13050    0.25830    0.95610    1.000
    C55      C        0.42210    0.67180    0.34990    1.000
    H24      H        0.42860    0.76910    0.33140    1.000
    C56      C        0.37830    0.56370    0.32170    1.000
    Lu4      Lu       0.25210    0.03693    0.27145    1.000
    N7       N        0.48190    0.44830    0.48710    1.000
    N8       N        0.23540    0.80100    0.98160    1.000
    O19      O        0.26210    0.08790    0.17790    1.000
    O20      O        0.34540    0.60430    0.27060    1.000
    O21      O        0.28780    0.30930    0.27510    1.000
    O22      O        0.33160    0.14380    0.34470    1.000
    O23      O        0.22930    0.34930    0.15500    1.000
    O24      O        0.16010    0.39900    0.05410    1.000
    C57      C        0.82770    0.21490    0.82200    1.000
    C58      C        0.95080    0.00760    0.92980    1.000
    C59      C        0.90760    0.11700    0.90250    1.000
    H25      H        0.90120    0.21370    0.92140    1.000
    C60      C        0.74030    0.29690    0.64120    1.000
    C61      C        0.73700    0.49720    0.56120    1.000
    H26      H        0.76380    0.56110    0.58730    1.000
    C62      C        0.67460    0.46090    0.46690    1.000
    H27      H        0.65840    0.50180    0.43010    1.000
    C63      C        0.87310    0.08680    0.84740    1.000
    C64      C        0.71840    0.34780    0.57850    1.000
    C65      C        0.71600    0.55310    0.50480    1.000
    C66      C        0.95680    0.85970    0.90480    1.000
    H28      H        0.98350    0.78140    0.92410    1.000
    C67      C        0.67750    0.24860    0.54040    1.000
    C68      C        0.65630    0.30610    0.48300    1.000
    H29      H        0.63050    0.24170    0.45610    1.000
    C69      C        0.92210    0.82820    0.84990    1.000
    H30      H        0.92860    0.73090    0.83140    1.000
    C70      C        0.87830    0.93630    0.82170    1.000
    Lu5      Lu       0.75210    0.46307    0.77145    1.000
    N9       N        0.98190    0.05170    0.98710    1.000
    N10      N        0.73540    0.69900    0.48160    1.000
    O25      O        0.76210    0.41210    0.67790    1.000
    O26      O        0.84540    0.89570    0.77060    1.000
    O27      O        0.78780    0.19070    0.77510    1.000
    O28      O        0.83160    0.35620    0.84470    1.000
    O29      O        0.72930    0.15070    0.65500    1.000
    O30      O        0.66010    0.10100    0.55410    1.000
    C71      C        0.32770    0.71490    0.82200    1.000
    C72      C        0.45080    0.50760    0.92980    1.000
    C73      C        0.40760    0.61700    0.90250    1.000
    H31      H        0.40120    0.71370    0.92140    1.000
    C74      C        0.24030    0.79690    0.64120    1.000
    C75      C        0.23700    0.99720    0.56120    1.000
    H32      H        0.26380    0.06110    0.58730    1.000
    C76      C        0.17460    0.96090    0.46690    1.000
    H33      H        0.15840    0.00180    0.43010    1.000
    C77      C        0.37310    0.58680    0.84740    1.000
    C78      C        0.21840    0.84780    0.57850    1.000
    C79      C        0.21600    0.05310    0.50480    1.000
    C80      C        0.45680    0.35970    0.90480    1.000
    H34      H        0.48350    0.28140    0.92410    1.000
    C81      C        0.17750    0.74860    0.54040    1.000
    C82      C        0.15630    0.80610    0.48300    1.000
    H35      H        0.13050    0.74170    0.45610    1.000
    C83      C        0.42210    0.32820    0.84990    1.000
    H36      H        0.42860    0.23090    0.83140    1.000
    C84      C        0.37830    0.43630    0.82170    1.000
    Lu6      Lu       0.25210    0.96307    0.77145    1.000
    N11      N        0.48190    0.55170    0.98710    1.000
    N12      N        0.23540    0.19900    0.48160    1.000
    O31      O        0.26210    0.91210    0.67790    1.000
    O32      O        0.34540    0.39570    0.77060    1.000
    O33      O        0.28780    0.69070    0.77510    1.000
    O34      O        0.33160    0.85620    0.84470    1.000
    O35      O        0.22930    0.65070    0.65500    1.000
    O36      O        0.16010    0.60100    0.55410    1.000
    C85      C        0.17230    0.21490    0.67800    1.000
    C86      C        0.04920    0.00760    0.57020    1.000
    C87      C        0.09240    0.11700    0.59750    1.000
    H37      H        0.09880    0.21370    0.57860    1.000
    C88      C        0.25970    0.29690    0.85880    1.000
    C89      C        0.26300    0.49720    0.93880    1.000
    H38      H        0.23620    0.56110    0.91270    1.000
    C90      C        0.32540    0.46090    0.03310    1.000
    H39      H        0.34160    0.50180    0.06990    1.000
    C91      C        0.12690    0.08680    0.65260    1.000
    C92      C        0.28160    0.34780    0.92150    1.000
    C93      C        0.28400    0.55310    0.99520    1.000
    C94      C        0.04320    0.85970    0.59520    1.000
    H40      H        0.01650    0.78140    0.57590    1.000
    C95      C        0.32250    0.24860    0.95960    1.000
    C96      C        0.34370    0.30610    0.01700    1.000
    H41      H        0.36950    0.24170    0.04390    1.000
    C97      C        0.07790    0.82820    0.65010    1.000
    H42      H        0.07140    0.73090    0.66860    1.000
    C98      C        0.12170    0.93630    0.67830    1.000
    Lu7      Lu       0.24790    0.46307    0.72855    1.000
    N13      N        0.01810    0.05170    0.51290    1.000
    N14      N        0.26460    0.69900    0.01840    1.000
    O37      O        0.23790    0.41210    0.82210    1.000
    O38      O        0.15460    0.89570    0.72940    1.000
    O39      O        0.21220    0.19070    0.72490    1.000
    O40      O        0.16840    0.35620    0.65530    1.000
    O41      O        0.27070    0.15070    0.84500    1.000
    O42      O        0.33990    0.10100    0.94590    1.000
    C99      C        0.67230    0.71490    0.67800    1.000
    C100     C        0.54920    0.50760    0.57020    1.000
    C101     C        0.59240    0.61700    0.59750    1.000
    H43      H        0.59880    0.71370    0.57860    1.000
    C102     C        0.75970    0.79690    0.85880    1.000
    C103     C        0.76300    0.99720    0.93880    1.000
    H44      H        0.73620    0.06110    0.91270    1.000
    C104     C        0.82540    0.96090    0.03310    1.000
    H45      H        0.84160    0.00180    0.06990    1.000
    C105     C        0.62690    0.58680    0.65260    1.000
    C106     C        0.78160    0.84780    0.92150    1.000
    C107     C        0.78400    0.05310    0.99520    1.000
    C108     C        0.54320    0.35970    0.59520    1.000
    H46      H        0.51650    0.28140    0.57590    1.000
    C109     C        0.82250    0.74860    0.95960    1.000
    C110     C        0.84370    0.80610    0.01700    1.000
    H47      H        0.86950    0.74170    0.04390    1.000
    C111     C        0.57790    0.32820    0.65010    1.000
    H48      H        0.57140    0.23090    0.66860    1.000
    C112     C        0.62170    0.43630    0.67830    1.000
    Lu8      Lu       0.74790    0.96307    0.72855    1.000
    N15      N        0.51810    0.55170    0.51290    1.000
    N16      N        0.76460    0.19900    0.01840    1.000
    O43      O        0.73790    0.91210    0.82210    1.000
    O44      O        0.65460    0.39570    0.72940    1.000
    O45      O        0.71220    0.69070    0.72490    1.000
    O46      O        0.66840    0.85620    0.65530    1.000
    O47      O        0.77070    0.65070    0.84500    1.000
    O48      O        0.83990    0.60100    0.94590    1.000
