# CIF file generated by openbabel 3.1.0, see https://openbabel.org
data_I
_chemical_name_common 'Cell_opt_MIXBIG'
_cell_length_a 18.4966
_cell_length_b 18.466
_cell_length_c 35.3859
_cell_angle_alpha 89.5895
_cell_angle_beta 90.274
_cell_angle_gamma 120.097
_space_group_name_H-M_alt 'P 1'
_space_group_name_Hall 'P 1'
loop_
    _symmetry_equiv_pos_as_xyz
    x,y,z
loop_
    _atom_site_label
    _atom_site_type_symbol
    _atom_site_fract_x
    _atom_site_fract_y
    _atom_site_fract_z
    _atom_site_occupancy
    C1       C        0.29239    0.13915    0.21345    1.000
    C2       C        0.26826    0.19332    0.22924    1.000
    C3       C        0.22175    0.17114    0.26309    1.000
    C4       C        0.19753    0.09303    0.27999    1.000
    C5       C        0.21895    0.03739    0.26359    1.000
    C6       C        0.26768    0.06178    0.23078    1.000
    H7       H        0.28725    0.25300    0.21568    1.000
    H8       H        0.15987    0.07444    0.30540    1.000
    H9       H        0.28555    0.01974    0.21815    1.000
    C10      C        0.87745    0.43209    0.52950    1.000
    C11      C        0.86944    0.49272    0.54960    1.000
    C12      C        0.85786    0.48643    0.58882    1.000
    C13      C        0.85409    0.41774    0.60800    1.000
    C14      C        0.86171    0.35584    0.58828    1.000
    C15      C        0.87549    0.36465    0.54893    1.000
    H16      H        0.86993    0.54400    0.53427    1.000
    H17      H        0.84239    0.41102    0.63814    1.000
    H18      H        0.87903    0.31656    0.53306    1.000
    C19      C        0.62002    0.80191    0.87907    1.000
    C20      C        0.59456    0.72455    0.89665    1.000
    C21      C        0.54343    0.69985    0.92872    1.000
    C22      C        0.51996    0.75504    0.94389    1.000
    C23      C        0.54500    0.83312    0.92666    1.000
    C24      C        0.59394    0.85553    0.89364    1.000
    H25      H        0.61435    0.68313    0.88501    1.000
    H26      H        0.48087    0.73650    0.96885    1.000
    H27      H        0.61407    0.91542    0.88005    1.000
    C28      C        0.85058    0.10829    0.19898    1.000
    C29      C        0.78450    0.04139    0.21823    1.000
    C30      C        0.79016    0.03137    0.25748    1.000
    C31      C        0.86103    0.09156    0.27729    1.000
    C32      C        0.92669    0.15952    0.25828    1.000
    C33      C        0.92062    0.16714    0.21916    1.000
    H34      H        0.73181    0.99448    0.20228    1.000
    H35      H        0.86665    0.08382    0.30734    1.000
    H36      H        0.97191    0.21795    0.20394    1.000
    C37      C        0.47483    0.47964    0.55053    1.000
    C38      C        0.42226    0.39930    0.56532    1.000
    C39      C        0.44535    0.37279    0.59837    1.000
    C40      C        0.52287    0.42660    0.61545    1.000
    C41      C        0.57708    0.50576    0.59992    1.000
    C42      C        0.55167    0.53230    0.56797    1.000
    H43      H        0.36304    0.35863    0.55163    1.000
    H44      H        0.54226    0.40579    0.64020    1.000
    H45      H        0.59278    0.59367    0.55595    1.000
    C46      C        0.17326    0.76911    0.86714    1.000
    C47      C        0.11134    0.70240    0.88797    1.000
    C48      C        0.11960    0.69502    0.92708    1.000
    C49      C        0.19073    0.75860    0.94548    1.000
    C50      C        0.25279    0.82767    0.92505    1.000
    C51      C        0.24276    0.83288    0.88577    1.000
    H52      H        0.05871    0.65343    0.87274    1.000
    H53      H        0.19936    0.75299    0.97544    1.000
    H54      H        0.29147    0.88304    0.86921    1.000
    C55      C        0.83909    0.73008    0.19961    1.000
    C56      C        0.90835    0.73450    0.21807    1.000
    C57      C        0.91940    0.74990    0.25723    1.000
    C58      C        0.85811    0.75700    0.27782    1.000
    C59      C        0.78762    0.75074    0.25958    1.000
    C60      C        0.77887    0.73697    0.22052    1.000
    H61      H        0.95597    0.73156    0.20154    1.000
    H62      H        0.86681    0.77067    0.30775    1.000
    H63      H        0.72632    0.73483    0.20578    1.000
    C64      C        0.50502    0.05960    0.53440    1.000
    C65      C        0.57181    0.05983    0.55339    1.000
    C66      C        0.58290    0.07571    0.59257    1.000
    C67      C        0.52373    0.08737    0.61264    1.000
    C68      C        0.45560    0.08528    0.59387    1.000
    C69      C        0.44707    0.07112    0.55484    1.000
    H70      H        0.61802    0.05372    0.53720    1.000
    H71      H        0.53246    0.10139    0.64254    1.000
    H72      H        0.39620    0.07172    0.53978    1.000
    C73      C        0.16750    0.38993    0.86763    1.000
    C74      C        0.10862    0.39986    0.88815    1.000
    C75      C        0.11789    0.41537    0.92706    1.000
    C76      C        0.18743    0.42020    0.94563    1.000
    C77      C        0.24746    0.41022    0.92550    1.000
    C78      C        0.23589    0.39312    0.88643    1.000
    H79      H        0.05675    0.39869    0.87320    1.000
    H80      H        0.19656    0.43521    0.97544    1.000
    H81      H        0.28272    0.38819    0.87017    1.000
    C82      C        0.11891    0.29088    0.73509    1.000
    C83      C        0.17276    0.26494    0.72074    1.000
    C84      C        0.15276    0.21915    0.68687    1.000
    C85      C        0.07736    0.19833    0.66811    1.000
    C86      C        0.02119    0.22088    0.68313    1.000
    C87      C        0.04351    0.26802    0.71648    1.000
    H88      H        0.23092    0.28267    0.73527    1.000
    H89      H        0.06123    0.16212    0.64233    1.000
    H90      H        0.00208    0.28738    0.72845    1.000
    C91      C        0.78950    0.63143    0.06744    1.000
    C92      C        0.84352    0.60581    0.05290    1.000
    C93      C        0.82184    0.55739    0.01980    1.000
    C94      C        0.74434    0.53275    0.00232    1.000
    C95      C        0.68889    0.55583    0.01744    1.000
    C96      C        0.71273    0.60619    0.04966    1.000
    H97      H        0.90289    0.62561    0.06670    1.000
    H98      H        0.72630    0.49399    0.97731    1.000
    H99      H        0.67102    0.62537    0.06144    1.000
    C100     C        0.45672    0.96092    0.40194    1.000
    C101     C        0.37941    0.93455    0.38444    1.000
    C102     C        0.35659    0.88594    0.35166    1.000
    C103     C        0.41338    0.86554    0.33582    1.000
    C104     C        0.49134    0.89121    0.35301    1.000
    C105     C        0.51217    0.93805    0.38660    1.000
    H106     H        0.33683    0.95204    0.39672    1.000
    H107     H        0.39609    0.82817    0.31038    1.000
    H108     H        0.57190    0.95867    0.40021    1.000
    C109     C        0.13079    0.81418    0.73277    1.000
    C110     C        0.18219    0.89541    0.71864    1.000
    C111     C        0.16046    0.92116    0.68496    1.000
    C112     C        0.08529    0.86552    0.66651    1.000
    C113     C        0.03217    0.78529    0.68128    1.000
    C114     C        0.05647    0.75969    0.71391    1.000
    H115     H        0.23952    0.93747    0.73337    1.000
    H116     H        0.06671    0.88564    0.64128    1.000
    H117     H        0.01606    0.69765    0.72545    1.000
    C118     C        0.79728    0.15876    0.06714    1.000
    C119     C        0.84875    0.23711    0.05050    1.000
    C120     C        0.82450    0.26155    0.01742    1.000
    C121     C        0.74722    0.20492    0.00078    1.000
    C122     C        0.69353    0.12670    0.01771    1.000
    C123     C        0.71891    0.10430    0.05128    1.000
    H124     H        0.90855    0.27871    0.06355    1.000
    H125     H        0.72746    0.22268    0.97519    1.000
    H126     H        0.67926    0.04401    0.06451    1.000
    C127     C        0.42992    0.52857    0.41734    1.000
    C128     C        0.49110    0.59639    0.39667    1.000
    C129     C        0.48469    0.60135    0.35739    1.000
    C130     C        0.41584    0.53636    0.33869    1.000
    C131     C        0.35360    0.46736    0.35898    1.000
    C132     C        0.36211    0.46311    0.39842    1.000
    H133     H        0.54232    0.64720    0.41175    1.000
    H134     H        0.40907    0.54115    0.30850    1.000
    H135     H        0.31365    0.41220    0.41475    1.000
    C136     C        0.72626    0.85393    0.74790    1.000
    C137     C        0.73663    0.79463    0.72800    1.000
    C138     C        0.75095    0.80221    0.68903    1.000
    C139     C        0.75480    0.87083    0.66976    1.000
    C140     C        0.74483    0.93189    0.68917    1.000
    C141     C        0.72817    0.92133    0.72842    1.000
    H142     H        0.73578    0.74336    0.74346    1.000
    H143     H        0.76825    0.87787    0.63975    1.000
    H144     H        0.72230    0.96796    0.74440    1.000
    C145     C        0.38382    0.18342    0.07969    1.000
    C146     C        0.39259    0.12374    0.05925    1.000
    C147     C        0.40704    0.13213    0.02021    1.000
    C148     C        0.41225    0.20189    0.00144    1.000
    C149     C        0.40338    0.26304    0.02143    1.000
    C150     C        0.38659    0.25159    0.06066    1.000
    H151     H        0.39152    0.07209    0.07446    1.000
    H152     H        0.42635    0.20994    0.97150    1.000
    H153     H        0.38219    0.29856    0.07705    1.000
    C154     C        0.97743    0.48156    0.39745    1.000
    C155     C        0.00150    0.55851    0.37984    1.000
    C156     C        0.05332    0.58440    0.34802    1.000
    C157     C        0.07901    0.53083    0.33302    1.000
    C158     C        0.05578    0.45331    0.35035    1.000
    C159     C        0.00570    0.42952    0.38308    1.000
    H160     H        0.98049    0.59888    0.39152    1.000
    H161     H        0.11915    0.55065    0.30839    1.000
    H162     H        0.98707    0.37016    0.39687    1.000
    O163     O        0.07659    0.46720    0.97954    1.000
    O164     O        0.94030    0.53795    0.02199    1.000
    O165     O        0.94021    0.39542    0.01968    1.000
    O166     O        0.07572    0.60656    0.97962    1.000
    O167     O        0.99837    0.56598    0.92808    1.000
    O168     O        0.85910    0.35919    0.96937    1.000
    O169     O        0.86392    0.50138    0.97008    1.000
    O170     O        0.99537    0.42609    0.92911    1.000
    Cu171    Cu       0.01537    0.50548    0.00566    1.000
    Cu172    Cu       0.92115    0.45955    0.94417    1.000
    C173     C        0.05988    0.43600    0.94657    1.000
    C174     C        0.87857    0.53142    0.00321    1.000
    C175     C        0.87637    0.34122    0.00158    1.000
    C176     C        0.06212    0.62083    0.94587    1.000
    O177     O        0.74476    0.79981    0.31257    1.000
    O178     O        0.61224    0.87597    0.35420    1.000
    O179     O        0.60878    0.73421    0.35456    1.000
    O180     O        0.74389    0.93895    0.31033    1.000
    O181     O        0.66454    0.89850    0.25931    1.000
    O182     O        0.52869    0.69263    0.30380    1.000
    O183     O        0.53269    0.83441    0.30326    1.000
    O184     O        0.66404    0.75934    0.26201    1.000
    Cu185    Cu       0.68530    0.84104    0.33808    1.000
    Cu186    Cu       0.58932    0.79195    0.27708    1.000
    C187     C        0.72854    0.76934    0.27947    1.000
    C188     C        0.54884    0.86675    0.33597    1.000
    C189     C        0.54436    0.67917    0.33727    1.000
    C190     C        0.72884    0.95307    0.27684    1.000
    O191     O        0.27213    0.20086    0.68934    1.000
    O192     O        0.41162    0.13343    0.64696    1.000
    O193     O        0.40653    0.27121    0.64742    1.000
    O194     O        0.27583    0.06071    0.68819    1.000
    O195     O        0.19886    0.02364    0.63645    1.000
    O196     O        0.32826    0.23437    0.59605    1.000
    O197     O        0.33393    0.09743    0.59546    1.000
    O198     O        0.19502    0.16202    0.63764    1.000
    Cu199    Cu       0.34906    0.17024    0.67329    1.000
    Cu200    Cu       0.25609    0.12517    0.61134    1.000
    C201     C        0.20969    0.19291    0.67060    1.000
    C202     C        0.39719    0.10548    0.61339    1.000
    C203     C        0.39038    0.28872    0.61476    1.000
    C204     C        0.21460    0.00601    0.66912    1.000
    O205     O        0.34188    0.45713    0.97761    1.000
    O206     O        0.55107    0.53477    0.01843    1.000
    O207     O        0.48007    0.59943    0.97829    1.000
    O208     O        0.41235    0.39307    0.02150    1.000
    O209     O        0.44704    0.35267    0.96961    1.000
    O210     O        0.52266    0.56172    0.92790    1.000
    O211     O        0.58859    0.49175    0.96811    1.000
    O212     O        0.38159    0.42130    0.92578    1.000
    Cu213    Cu       0.44172    0.49920    0.00412    1.000
    Cu214    Cu       0.48809    0.45234    0.94268    1.000
    C215     C        0.32697    0.42900    0.94408    1.000
    C216     C        0.60556    0.52623    0.00036    1.000
    C217     C        0.51412    0.61633    0.94590    1.000
    C218     C        0.42015    0.33815    0.00343    1.000
    O219     O        0.19591    0.89873    0.26088    1.000
    O220     O        0.11601    0.68622    0.29899    1.000
    O221     O        0.05345    0.76040    0.25756    1.000
    O222     O        0.25837    0.82566    0.30129    1.000
    O223     O        0.21823    0.86344    0.35245    1.000
    O224     O        0.01316    0.79574    0.30939    1.000
    O225     O        0.07592    0.72281    0.35052    1.000
    O226     O        0.15398    0.93464    0.31207    1.000
    Cu227    Cu       0.15967    0.78870    0.27450    1.000
    Cu228    Cu       0.11110    0.83221    0.33640    1.000
    C229     C        0.18843    0.95291    0.27977    1.000
    C230     C        0.08284    0.66845    0.33156    1.000
    C231     C        0.99881    0.76843    0.27576    1.000
    C232     C        0.27367    0.85686    0.33423    1.000
    O233     O        0.67774    0.12212    0.64449    1.000
    O234     O        0.88888    0.20490    0.68369    1.000
    O235     O        0.81490    0.26346    0.64127    1.000
    O236     O        0.75226    0.06140    0.68795    1.000
    O237     O        0.78492    0.01833    0.63631    1.000
    O238     O        0.85541    0.22344    0.59095    1.000
    O239     O        0.92516    0.15849    0.63427    1.000
    O240     O        0.71598    0.08408    0.59286    1.000
    Cu241    Cu       0.77936    0.16652    0.66948    1.000
    Cu242    Cu       0.82396    0.11653    0.60861    1.000
    C243     C        0.66199    0.09296    0.61116    1.000
    C244     C        0.94287    0.19448    0.66625    1.000
    C245     C        0.84464    0.27768    0.60799    1.000
    C246     C        0.75979    0.00570    0.67040    1.000
    O247     O        0.52840    0.95349    0.92513    1.000
    O248     O        0.45463    0.08788    0.96711    1.000
    O249     O        0.59412    0.08655    0.96776    1.000
    O250     O        0.38707    0.95122    0.92531    1.000
    O251     O        0.34769    0.87369    0.97705    1.000
    O252     O        0.55654    0.00657    0.01876    1.000
    O253     O        0.41819    0.00954    0.01857    1.000
    O254     O        0.48734    0.87395    0.97627    1.000
    Cu255    Cu       0.49460    0.02773    0.94118    1.000
    Cu256    Cu       0.44816    0.93309    0.00278    1.000
    C257     C        0.51937    0.89001    0.94346    1.000
    C258     C        0.42633    0.07304    0.00065    1.000
    C259     C        0.61082    0.07009    0.00052    1.000
    C260     C        0.33254    0.88794    0.94361    1.000
    O261     O        0.20372    0.29017    0.26188    1.000
    O262     O        0.12074    0.41672    0.30223    1.000
    O263     O        0.26240    0.42081    0.30593    1.000
    O264     O        0.06043    0.28252    0.26070    1.000
    O265     O        0.01791    0.20243    0.31165    1.000
    O266     O        0.22068    0.34185    0.35722    1.000
    O267     O        0.07775    0.33653    0.35314    1.000
    O268     O        0.16143    0.20989    0.31277    1.000
    Cu269    Cu       0.16602    0.36068    0.27766    1.000
    Cu270    Cu       0.11573    0.26465    0.33885    1.000
    C271     C        0.19503    0.22698    0.28018    1.000
    C272     C        0.08577    0.39914    0.33445    1.000
    C273     C        0.27555    0.40618    0.33964    1.000
    C274     C        0.00504    0.21816    0.27810    1.000
    O275     O        0.79538    0.75629    0.63579    1.000
    O276     O        0.85152    0.61195    0.59111    1.000
    O277     O        0.71609    0.62033    0.59629    1.000
    O278     O        0.93051    0.74780    0.63240    1.000
    O279     O        0.89456    0.66840    0.68357    1.000
    O280     O        0.68049    0.54136    0.64761    1.000
    O281     O        0.81592    0.53351    0.64257    1.000
    O282     O        0.75992    0.67806    0.68732    1.000
    Cu283    Cu       0.82719    0.69167    0.60861    1.000
    Cu284    Cu       0.78428    0.59766    0.67049    1.000
    C285     C        0.76880    0.74216    0.66956    1.000
    C286     C        0.84195    0.54743    0.60868    1.000
    C287     C        0.66183    0.55881    0.61558    1.000
    C288     C        0.94867    0.73065    0.66465    1.000
    N289     N        0.12064    0.40237    0.77124    1.000
    N290     N        0.13240    0.42996    0.80632    1.000
    C291     C        0.16035    0.38625    0.82613    1.000
    C292     C        0.16615    0.33098    0.80183    1.000
    N293     N        0.14020    0.34292    0.76787    1.000
    H294     H        0.17992    0.28200    0.80884    1.000
    N295     N        0.45816    0.07232    0.43799    1.000
    N296     N        0.46982    0.09979    0.47311    1.000
    C297     C        0.49819    0.05637    0.49286    1.000
    C298     C        0.50442    0.00147    0.46849    1.000
    N299     N        0.47833    0.01334    0.43456    1.000
    H300     H        0.51839    0.95261    0.47545    1.000
    N301     N        0.79027    0.74248    0.10357    1.000
    N302     N        0.80219    0.76994    0.13869    1.000
    C303     C        0.83187    0.72733    0.15816    1.000
    C304     C        0.83858    0.67299    0.13367    1.000
    N305     N        0.81147    0.68428    0.09991    1.000
    H306     H        0.85336    0.62463    0.14049    1.000
    N307     N        0.14360    0.69382    0.80821    1.000
    N308     N        0.13243    0.70363    0.77205    1.000
    C309     C        0.15197    0.78391    0.76732    1.000
    C310     C        0.17599    0.82353    0.80197    1.000
    N311     N        0.16926    0.76466    0.82671    1.000
    H312     H        0.18876    0.88576    0.80912    1.000
    N313     N        0.46008    0.60229    0.47679    1.000
    N314     N        0.47192    0.59137    0.51274    1.000
    C315     C        0.45212    0.51087    0.51680    1.000
    C316     C        0.42736    0.47233    0.48197    1.000
    N317     N        0.43378    0.53194    0.45779    1.000
    H318     H        0.41471    0.41041    0.47428    1.000
    N319     N        0.90650    0.15290    0.10233    1.000
    N320     N        0.92322    0.14072    0.13736    1.000
    C321     C        0.85259    0.11431    0.15747    1.000
    C322     C        0.79126    0.10991    0.13348    1.000
    N323     N        0.82789    0.13494    0.09935    1.000
    H324     H        0.72954    0.09817    0.14083    1.000
    N325     N        0.76428    0.82153    0.80859    1.000
    N326     N        0.73780    0.80719    0.84393    1.000
    C327     C        0.67611    0.82558    0.84630    1.000
    C328     C        0.66563    0.85219    0.81108    1.000
    N329     N        0.72175    0.84819    0.78835    1.000
    H330     H        0.61694    0.86477    0.80209    1.000
    N331     N        0.86288    0.47546    0.43281    1.000
    N332     N        0.83494    0.46344    0.46790    1.000
    C333     C        0.87973    0.43720    0.48795    1.000
    C334     C        0.93603    0.43281    0.46384    1.000
    N335     N        0.92354    0.45764    0.42970    1.000
    H336     H        0.98639    0.42142    0.47114    1.000
    N337     N        0.42747    0.15333    0.13950    1.000
    N338     N        0.40566    0.14206    0.17549    1.000
    C339     C        0.34483    0.16134    0.17937    1.000
    C340     C        0.32989    0.18513    0.14430    1.000
    N341     N        0.38265    0.17868    0.12021    1.000
    H342     H        0.28052    0.19762    0.13647    1.000
