# CIF file generated by openbabel 3.1.0, see https://openbabel.org
data_I
_chemical_name_common 'image0'
_cell_length_a 10.5363
_cell_length_b 11.4698
_cell_length_c 13.4114
_cell_angle_alpha 69.028
_cell_angle_beta 78.406
_cell_angle_gamma 63.414
_space_group_name_H-M_alt 'P 1'
_space_group_name_Hall 'P 1'
loop_
    _symmetry_equiv_pos_as_xyz
    x,y,z
loop_
    _atom_site_label
    _atom_site_type_symbol
    _atom_site_fract_x
    _atom_site_fract_y
    _atom_site_fract_z
    _atom_site_occupancy
    U1       U        0.62382    0.71245    0.83696    1.000
    Dy1      Dy       0.60033    0.22942    0.74930    1.000
    C1       C        0.99640    0.34150    0.85380    1.000
    C2       C        0.11100    0.31200    0.91050    1.000
    H1       H        0.09580    0.35770    0.95970    1.000
    C3       C        0.24790    0.21510    0.89470    1.000
    C4       C        0.26660    0.14190    0.82370    1.000
    C5       C        0.14570    0.16480    0.77510    1.000
    H2       H        0.15570    0.10960    0.73490    1.000
    C6       C        0.01550    0.26560    0.78610    1.000
    C7       C        0.62600    0.99870    0.45150    1.000
    H3       H        0.71260    0.99800    0.41830    1.000
    C8       C        0.61860    0.87570    0.50600    1.000
    C9       C        0.48790    0.87590    0.55710    1.000
    C10      C        0.86210    0.46300    0.86070    1.000
    C11      C        0.36230    0.19270    0.95790    1.000
    C12      C        0.40830    0.04100    0.79480    1.000
    C13      C        0.89640    0.29130    0.72500    1.000
    C14      C        0.46800    0.74740    0.62210    1.000
    C15      C        0.74310    0.74550    0.50840    1.000
    O1       O        0.85040    0.53530    0.91480    1.000
    O2       O        0.76190    0.49500    0.80310    1.000
    O3       O        0.81500    0.23380    0.77200    1.000
    O4       O        0.88770    0.36230    0.62830    1.000
    O5       O        0.41700    0.92010    0.82000    1.000
    O6       O        0.50210    0.07710    0.75190    1.000
    O7       O        0.48360    0.17480    0.91670    1.000
    O8       O        0.32630    0.19650    0.05240    1.000
    O9       O        0.50200    0.69510    0.71840    1.000
    O10      O        0.41070    0.70150    0.58160    1.000
    O11      O        0.73300    0.63360    0.53360    1.000
    O12      O        0.86610    0.75050    0.47910    1.000
    U2       U        0.37618    0.28755    0.16304    1.000
    Dy2      Dy       0.39967    0.77058    0.25070    1.000
    C16      C        0.00360    0.65850    0.14620    1.000
    C17      C        0.88900    0.68800    0.08950    1.000
    H4       H        0.90420    0.64230    0.04030    1.000
    C18      C        0.75210    0.78490    0.10530    1.000
    C19      C        0.73340    0.85810    0.17630    1.000
    C20      C        0.85430    0.83520    0.22490    1.000
    H5       H        0.84430    0.89040    0.26510    1.000
    C21      C        0.98450    0.73440    0.21390    1.000
    C22      C        0.37400    0.00130    0.54850    1.000
    H6       H        0.28740    0.00200    0.58170    1.000
    C23      C        0.38140    0.12430    0.49400    1.000
    C24      C        0.51210    0.12410    0.44290    1.000
    C25      C        0.13790    0.53700    0.13930    1.000
    C26      C        0.63770    0.80730    0.04210    1.000
    C27      C        0.59170    0.95900    0.20520    1.000
    C28      C        0.10360    0.70870    0.27500    1.000
    C29      C        0.53200    0.25260    0.37790    1.000
    C30      C        0.25690    0.25450    0.49160    1.000
    O13      O        0.14960    0.46470    0.08520    1.000
    O14      O        0.23810    0.50500    0.19690    1.000
    O15      O        0.18500    0.76620    0.22800    1.000
    O16      O        0.11230    0.63770    0.37170    1.000
    O17      O        0.58300    0.07990    0.18000    1.000
    O18      O        0.49790    0.92290    0.24810    1.000
    O19      O        0.51640    0.82520    0.08330    1.000
    O20      O        0.67370    0.80350    0.94760    1.000
    O21      O        0.49800    0.30490    0.28160    1.000
    O22      O        0.58930    0.29850    0.41840    1.000
    O23      O        0.26700    0.36640    0.46640    1.000
    O24      O        0.13390    0.24950    0.52090    1.000
    U3       U        0.00000    0.50000    0.50000    1.000
