# CIF file generated by openbabel 3.1.0, see https://openbabel.org
data_I
_chemical_name_common 'ITIWUE_charged'
_cell_length_a 15.8774
_cell_length_b 15.8774
_cell_length_c 21.542
_cell_angle_alpha 90
_cell_angle_beta 90
_cell_angle_gamma 90
_space_group_name_H-M_alt 'P 1'
_space_group_name_Hall 'P 1'
loop_
    _symmetry_equiv_pos_as_xyz
    x,y,z
loop_
    _atom_site_label
    _atom_site_type_symbol
    _atom_site_fract_x
    _atom_site_fract_y
    _atom_site_fract_z
    _atom_site_occupancy
    Cd1      Cd       0.05884    0.94116    0.75000    1.000
    Cd2      Cd       0.94116    0.05884    0.25000    1.000
    Cd3      Cd       0.55884    0.55884    0.00000    1.000
    Cd4      Cd       0.44116    0.44116    0.50000    1.000
    H1       H        0.38910    0.46160    0.65150    1.000
    H2       H        0.28610    0.41130    0.71820    1.000
    H3       H        0.25620    0.21270    0.60210    1.000
    H4       H        0.35830    0.27150    0.53920    1.000
    H5       H        0.20170    0.34630    0.78300    1.000
    H6       H        0.08810    0.29840    0.83700    1.000
    H7       H        0.99460    0.19980    0.79350    1.000
    H8       H        0.13780    0.19760    0.63730    1.000
    H9       H        0.87810    0.95420    0.54050    1.000
    H10      H        0.76710    0.93310    0.47280    1.000
    H11      H        0.66450    0.03730    0.45920    1.000
    H12      H        0.77620    0.17510    0.59460    1.000
    H13      H        0.60680    0.15540    0.43270    1.000
    H14      H        0.51340    0.26870    0.42370    1.000
    H15      H        0.55370    0.33670    0.59480    1.000
    H16      H        0.64910    0.22980    0.61060    1.000
    H17      H        0.90840    0.26140    0.65390    1.000
    H18      H        0.96670    0.25190    0.60050    1.000
    H19      H        0.61090    0.53840    0.15150    1.000
    H20      H        0.71390    0.58870    0.21820    1.000
    H21      H        0.74380    0.78730    0.10210    1.000
    H22      H        0.64170    0.72850    0.03920    1.000
    H23      H        0.79830    0.65370    0.28300    1.000
    H24      H        0.91190    0.70160    0.33700    1.000
    H25      H        0.00540    0.80020    0.29350    1.000
    H26      H        0.86220    0.80240    0.13730    1.000
    H27      H        0.12190    0.04580    0.04050    1.000
    H28      H        0.23290    0.06690    0.97280    1.000
    H29      H        0.33550    0.96270    0.95920    1.000
    H30      H        0.22380    0.82490    0.09460    1.000
    H31      H        0.39320    0.84460    0.93270    1.000
    H32      H        0.48660    0.73130    0.92370    1.000
    H33      H        0.44630    0.66330    0.09480    1.000
    H34      H        0.35090    0.77020    0.11060    1.000
    H35      H        0.09160    0.73860    0.15390    1.000
    H36      H        0.03330    0.74810    0.10050    1.000
    H37      H        0.03840    0.88910    0.90150    1.000
    H38      H        0.08870    0.78610    0.96820    1.000
    H39      H        0.28730    0.75620    0.85210    1.000
    H40      H        0.22850    0.85830    0.78920    1.000
    H41      H        0.15370    0.70170    0.03300    1.000
    H42      H        0.20160    0.58810    0.08700    1.000
    H43      H        0.30020    0.49460    0.04350    1.000
    H44      H        0.30240    0.63780    0.88730    1.000
    H45      H        0.54580    0.37810    0.79050    1.000
    H46      H        0.56690    0.26710    0.72280    1.000
    H47      H        0.46270    0.16450    0.70920    1.000
    H48      H        0.32490    0.27620    0.84460    1.000
    H49      H        0.34460    0.10680    0.68270    1.000
    H50      H        0.23130    0.01340    0.67370    1.000
    H51      H        0.16330    0.05370    0.84480    1.000
    H52      H        0.27020    0.14910    0.86060    1.000
    H53      H        0.23860    0.40840    0.90390    1.000
    H54      H        0.24810    0.46670    0.85050    1.000
    H55      H        0.96160    0.11090    0.40150    1.000
    H56      H        0.91130    0.21390    0.46820    1.000
    H57      H        0.71270    0.24380    0.35210    1.000
    H58      H        0.77150    0.14170    0.28920    1.000
    H59      H        0.84630    0.29830    0.53300    1.000
    H60      H        0.79840    0.41190    0.58700    1.000
    H61      H        0.69980    0.50540    0.54350    1.000
    H62      H        0.69760    0.36220    0.38730    1.000
    H63      H        0.45420    0.62190    0.29050    1.000
    H64      H        0.43310    0.73290    0.22280    1.000
    H65      H        0.53730    0.83550    0.20920    1.000
    H66      H        0.67510    0.72380    0.34460    1.000
    H67      H        0.65540    0.89320    0.18270    1.000
    H68      H        0.76870    0.98660    0.17370    1.000
    H69      H        0.83670    0.94630    0.34480    1.000
    H70      H        0.72980    0.85090    0.36060    1.000
    H71      H        0.76140    0.59160    0.40390    1.000
    H72      H        0.75190    0.53330    0.35050    1.000
    H73      H        0.11090    0.96160    0.59850    1.000
    H74      H        0.21390    0.91130    0.53180    1.000
    H75      H        0.24380    0.71270    0.64790    1.000
    H76      H        0.14170    0.77150    0.71080    1.000
    H77      H        0.29830    0.84630    0.46700    1.000
    H78      H        0.41190    0.79840    0.41300    1.000
    H79      H        0.50540    0.69980    0.45650    1.000
    H80      H        0.36220    0.69760    0.61270    1.000
    H81      H        0.62190    0.45420    0.70950    1.000
    H82      H        0.73290    0.43310    0.77720    1.000
    H83      H        0.83550    0.53730    0.79080    1.000
    H84      H        0.72380    0.67510    0.65540    1.000
    H85      H        0.89320    0.65540    0.81730    1.000
    H86      H        0.98660    0.76870    0.82630    1.000
    H87      H        0.94630    0.83670    0.65520    1.000
    H88      H        0.85090    0.72980    0.63940    1.000
    H89      H        0.59160    0.76140    0.59610    1.000
    H90      H        0.53330    0.75190    0.64950    1.000
    H91      H        0.88910    0.03840    0.09850    1.000
    H92      H        0.78610    0.08870    0.03180    1.000
    H93      H        0.75620    0.28730    0.14790    1.000
    H94      H        0.85830    0.22850    0.21080    1.000
    H95      H        0.70170    0.15370    0.96700    1.000
    H96      H        0.58810    0.20160    0.91300    1.000
    H97      H        0.49460    0.30020    0.95650    1.000
    H98      H        0.63780    0.30240    0.11270    1.000
    H99      H        0.37810    0.54580    0.20950    1.000
    H100     H        0.26710    0.56690    0.27720    1.000
    H101     H        0.16450    0.46270    0.29080    1.000
    H102     H        0.27620    0.32490    0.15540    1.000
    H103     H        0.10680    0.34460    0.31730    1.000
    H104     H        0.01340    0.23130    0.32630    1.000
    H105     H        0.05370    0.16330    0.15520    1.000
    H106     H        0.14910    0.27020    0.13940    1.000
    H107     H        0.40840    0.23860    0.09610    1.000
    H108     H        0.46670    0.24810    0.14950    1.000
    H109     H        0.46160    0.38910    0.34850    1.000
    H110     H        0.41130    0.28610    0.28180    1.000
    H111     H        0.21270    0.25620    0.39790    1.000
    H112     H        0.27150    0.35830    0.46080    1.000
    H113     H        0.34630    0.20170    0.21700    1.000
    H114     H        0.29840    0.08810    0.16300    1.000
    H115     H        0.19980    0.99460    0.20650    1.000
    H116     H        0.19760    0.13780    0.36270    1.000
    H117     H        0.95420    0.87810    0.45950    1.000
    H118     H        0.93310    0.76710    0.52720    1.000
    H119     H        0.03730    0.66450    0.54080    1.000
    H120     H        0.17510    0.77620    0.40540    1.000
    H121     H        0.15540    0.60680    0.56730    1.000
    H122     H        0.26870    0.51340    0.57630    1.000
    H123     H        0.33670    0.55370    0.40520    1.000
    H124     H        0.22980    0.64910    0.38940    1.000
    H125     H        0.26140    0.90840    0.34610    1.000
    H126     H        0.25190    0.96670    0.39950    1.000
    H127     H        0.53840    0.61090    0.84850    1.000
    H128     H        0.58870    0.71390    0.78180    1.000
    H129     H        0.78730    0.74380    0.89790    1.000
    H130     H        0.72850    0.64170    0.96080    1.000
    H131     H        0.65370    0.79830    0.71700    1.000
    H132     H        0.70160    0.91190    0.66300    1.000
    H133     H        0.80020    0.00540    0.70650    1.000
    H134     H        0.80240    0.86220    0.86270    1.000
    H135     H        0.04580    0.12190    0.95950    1.000
    H136     H        0.06690    0.23290    0.02720    1.000
    H137     H        0.96270    0.33550    0.04080    1.000
    H138     H        0.82490    0.22380    0.90540    1.000
    H139     H        0.84460    0.39320    0.06730    1.000
    H140     H        0.73130    0.48660    0.07630    1.000
    H141     H        0.66330    0.44630    0.90520    1.000
    H142     H        0.77020    0.35090    0.88940    1.000
    H143     H        0.73860    0.09160    0.84610    1.000
    H144     H        0.74810    0.03330    0.89950    1.000
    C1       C        0.35990    0.41160    0.64040    1.000
    C2       C        0.29800    0.38180    0.68080    1.000
    C3       C        0.25380    0.30880    0.66620    1.000
    C4       C        0.28030    0.26550    0.61270    1.000
    C5       C        0.34200    0.30100    0.57560    1.000
    C6       C        0.18220    0.27740    0.70280    1.000
    C7       C        0.16510    0.30630    0.76430    1.000
    C8       C        0.09790    0.27790    0.79620    1.000
    C9       C        0.04210    0.21900    0.77080    1.000
    C10      C        0.05830    0.18920    0.71090    1.000
    C11      C        0.12770    0.21850    0.67790    1.000
    C12      C        0.00300    0.12610    0.68050    1.000
    C13      C        0.90760    0.07510    0.61830    1.000
    C14      C        0.83700    0.06670    0.57410    1.000
    C15      C        0.83470    0.99510    0.53740    1.000
    C16      C        0.76960    0.98340    0.49670    1.000
    C17      C        0.70710    0.04400    0.48990    1.000
    C18      C        0.70730    0.11410    0.52800    1.000
    C19      C        0.77420    0.12590    0.56950    1.000
    C20      C        0.64140    0.18040    0.52170    1.000
    C21      C        0.59840    0.19240    0.46680    1.000
    C22      C        0.54170    0.26050    0.46210    1.000
    C23      C        0.56570    0.29970    0.56130    1.000
    C24      C        0.62270    0.23630    0.57130    1.000
    C25      C        0.64010    0.58840    0.14040    1.000
    C26      C        0.70200    0.61820    0.18080    1.000
    C27      C        0.74620    0.69120    0.16620    1.000
    C28      C        0.71970    0.73450    0.11270    1.000
    C29      C        0.65800    0.69900    0.07560    1.000
    C30      C        0.81780    0.72260    0.20280    1.000
    C31      C        0.83490    0.69370    0.26430    1.000
    C32      C        0.90210    0.72210    0.29620    1.000
    C33      C        0.95790    0.78100    0.27080    1.000
    C34      C        0.94170    0.81080    0.21090    1.000
    C35      C        0.87230    0.78150    0.17790    1.000
    C36      C        0.99700    0.87390    0.18050    1.000
    C37      C        0.09240    0.92490    0.11830    1.000
    C38      C        0.16300    0.93330    0.07410    1.000
    C39      C        0.16530    0.00490    0.03740    1.000
    C40      C        0.23040    0.01660    0.99670    1.000
    C41      C        0.29290    0.95600    0.98990    1.000
    C42      C        0.29270    0.88590    0.02800    1.000
    C43      C        0.22580    0.87410    0.06950    1.000
    C44      C        0.35860    0.81960    0.02170    1.000
    C45      C        0.40160    0.80760    0.96680    1.000
    C46      C        0.45830    0.73950    0.96210    1.000
    C47      C        0.43430    0.70030    0.06130    1.000
    C48      C        0.37730    0.76370    0.07130    1.000
    C49      C        0.08840    0.85990    0.89040    1.000
    C50      C        0.11820    0.79800    0.93080    1.000
    C51      C        0.19120    0.75380    0.91620    1.000
    C52      C        0.23450    0.78030    0.86270    1.000
    C53      C        0.19900    0.84200    0.82560    1.000
    C54      C        0.22260    0.68220    0.95280    1.000
    C55      C        0.19370    0.66510    0.01430    1.000
    C56      C        0.22210    0.59790    0.04620    1.000
    C57      C        0.28100    0.54210    0.02080    1.000
    C58      C        0.31080    0.55830    0.96090    1.000
    C59      C        0.28150    0.62770    0.92790    1.000
    C60      C        0.37390    0.50300    0.93050    1.000
    C61      C        0.42490    0.40760    0.86830    1.000
    C62      C        0.43330    0.33700    0.82410    1.000
    C63      C        0.50490    0.33470    0.78740    1.000
    C64      C        0.51660    0.26960    0.74670    1.000
    C65      C        0.45600    0.20710    0.73990    1.000
    C66      C        0.38590    0.20730    0.77800    1.000
    C67      C        0.37410    0.27420    0.81950    1.000
    C68      C        0.31960    0.14140    0.77170    1.000
    C69      C        0.30760    0.09840    0.71680    1.000
    C70      C        0.23950    0.04170    0.71210    1.000
    C71      C        0.20030    0.06570    0.81130    1.000
    C72      C        0.26370    0.12270    0.82130    1.000
    C73      C        0.91160    0.14010    0.39040    1.000
    C74      C        0.88180    0.20200    0.43080    1.000
    C75      C        0.80880    0.24620    0.41620    1.000
    C76      C        0.76550    0.21970    0.36270    1.000
    C77      C        0.80100    0.15800    0.32560    1.000
    C78      C        0.77740    0.31780    0.45280    1.000
    C79      C        0.80630    0.33490    0.51430    1.000
    C80      C        0.77790    0.40210    0.54620    1.000
    C81      C        0.71900    0.45790    0.52080    1.000
    C82      C        0.68920    0.44170    0.46090    1.000
    C83      C        0.71850    0.37230    0.42790    1.000
    C84      C        0.62610    0.49700    0.43050    1.000
    C85      C        0.57510    0.59240    0.36830    1.000
    C86      C        0.56670    0.66300    0.32410    1.000
    C87      C        0.49510    0.66530    0.28740    1.000
    C88      C        0.48340    0.73040    0.24670    1.000
    C89      C        0.54400    0.79290    0.23990    1.000
    C90      C        0.61410    0.79270    0.27800    1.000
    C91      C        0.62590    0.72580    0.31950    1.000
    C92      C        0.68040    0.85860    0.27170    1.000
    C93      C        0.69240    0.90160    0.21680    1.000
    C94      C        0.76050    0.95830    0.21210    1.000
    C95      C        0.79970    0.93430    0.31130    1.000
    C96      C        0.73630    0.87730    0.32130    1.000
    C97      C        0.14010    0.91160    0.60960    1.000
    C98      C        0.20200    0.88180    0.56920    1.000
    C99      C        0.24620    0.80880    0.58380    1.000
    C100     C        0.21970    0.76550    0.63730    1.000
    C101     C        0.15800    0.80100    0.67440    1.000
    C102     C        0.31780    0.77740    0.54720    1.000
    C103     C        0.33490    0.80630    0.48570    1.000
    C104     C        0.40210    0.77790    0.45380    1.000
    C105     C        0.45790    0.71900    0.47920    1.000
    C106     C        0.44170    0.68920    0.53910    1.000
    C107     C        0.37230    0.71850    0.57210    1.000
    C108     C        0.49700    0.62610    0.56950    1.000
    C109     C        0.59240    0.57510    0.63170    1.000
    C110     C        0.66300    0.56670    0.67590    1.000
    C111     C        0.66530    0.49510    0.71260    1.000
    C112     C        0.73040    0.48340    0.75330    1.000
    C113     C        0.79290    0.54400    0.76010    1.000
    C114     C        0.79270    0.61410    0.72200    1.000
    C115     C        0.72580    0.62590    0.68050    1.000
    C116     C        0.85860    0.68040    0.72830    1.000
    C117     C        0.90160    0.69240    0.78320    1.000
    C118     C        0.95830    0.76050    0.78790    1.000
    C119     C        0.93430    0.79970    0.68870    1.000
    C120     C        0.87730    0.73630    0.67870    1.000
    C121     C        0.85990    0.08840    0.10960    1.000
    C122     C        0.79800    0.11820    0.06920    1.000
    C123     C        0.75380    0.19120    0.08380    1.000
    C124     C        0.78030    0.23450    0.13730    1.000
    C125     C        0.84200    0.19900    0.17440    1.000
    C126     C        0.68220    0.22260    0.04720    1.000
    C127     C        0.66510    0.19370    0.98570    1.000
    C128     C        0.59790    0.22210    0.95380    1.000
    C129     C        0.54210    0.28100    0.97920    1.000
    C130     C        0.55830    0.31080    0.03910    1.000
    C131     C        0.62770    0.28150    0.07210    1.000
    C132     C        0.50300    0.37390    0.06950    1.000
    C133     C        0.40760    0.42490    0.13170    1.000
    C134     C        0.33700    0.43330    0.17590    1.000
    C135     C        0.33470    0.50490    0.21260    1.000
    C136     C        0.26960    0.51660    0.25330    1.000
    C137     C        0.20710    0.45600    0.26010    1.000
    C138     C        0.20730    0.38590    0.22200    1.000
    C139     C        0.27420    0.37410    0.18050    1.000
    C140     C        0.14140    0.31960    0.22830    1.000
    C141     C        0.09840    0.30760    0.28320    1.000
    C142     C        0.04170    0.23950    0.28790    1.000
    C143     C        0.06570    0.20030    0.18870    1.000
    C144     C        0.12270    0.26370    0.17870    1.000
    C145     C        0.41160    0.35990    0.35960    1.000
    C146     C        0.38180    0.29800    0.31920    1.000
    C147     C        0.30880    0.25380    0.33380    1.000
    C148     C        0.26550    0.28030    0.38730    1.000
    C149     C        0.30100    0.34200    0.42440    1.000
    C150     C        0.27740    0.18220    0.29720    1.000
    C151     C        0.30630    0.16510    0.23570    1.000
    C152     C        0.27790    0.09790    0.20380    1.000
    C153     C        0.21900    0.04210    0.22920    1.000
    C154     C        0.18920    0.05830    0.28910    1.000
    C155     C        0.21850    0.12770    0.32210    1.000
    C156     C        0.12610    0.00300    0.31950    1.000
    C157     C        0.07510    0.90760    0.38170    1.000
    C158     C        0.06670    0.83700    0.42590    1.000
    C159     C        0.99510    0.83470    0.46260    1.000
    C160     C        0.98340    0.76960    0.50330    1.000
    C161     C        0.04400    0.70710    0.51010    1.000
    C162     C        0.11410    0.70730    0.47200    1.000
    C163     C        0.12590    0.77420    0.43050    1.000
    C164     C        0.18040    0.64140    0.47830    1.000
    C165     C        0.19240    0.59840    0.53320    1.000
    C166     C        0.26050    0.54170    0.53790    1.000
    C167     C        0.29970    0.56570    0.43870    1.000
    C168     C        0.23630    0.62270    0.42870    1.000
    C169     C        0.58840    0.64010    0.85960    1.000
    C170     C        0.61820    0.70200    0.81920    1.000
    C171     C        0.69120    0.74620    0.83380    1.000
    C172     C        0.73450    0.71970    0.88730    1.000
    C173     C        0.69900    0.65800    0.92440    1.000
    C174     C        0.72260    0.81780    0.79720    1.000
    C175     C        0.69370    0.83490    0.73570    1.000
    C176     C        0.72210    0.90210    0.70380    1.000
    C177     C        0.78100    0.95790    0.72920    1.000
    C178     C        0.81080    0.94170    0.78910    1.000
    C179     C        0.78150    0.87230    0.82210    1.000
    C180     C        0.87390    0.99700    0.81950    1.000
    C181     C        0.92490    0.09240    0.88170    1.000
    C182     C        0.93330    0.16300    0.92590    1.000
    C183     C        0.00490    0.16530    0.96260    1.000
    C184     C        0.01660    0.23040    0.00330    1.000
    C185     C        0.95600    0.29290    0.01010    1.000
    C186     C        0.88590    0.29270    0.97200    1.000
    C187     C        0.87410    0.22580    0.93050    1.000
    C188     C        0.81960    0.35860    0.97830    1.000
    C189     C        0.80760    0.40160    0.03320    1.000
    C190     C        0.73950    0.45830    0.03790    1.000
    C191     C        0.70030    0.43430    0.93870    1.000
    C192     C        0.76370    0.37730    0.92870    1.000
    N1       N        0.00710    0.04350    0.68310    1.000
    N2       N        0.94610    0.01140    0.64460    1.000
    N3       N        0.94170    0.14750    0.64000    1.000
    N4       N        0.92160    0.22910    0.62040    1.000
    N5       N        0.38030    0.37440    0.58780    1.000
    N6       N        0.52580    0.31290    0.50720    1.000
    N7       N        0.99290    0.95650    0.18310    1.000
    N8       N        0.05390    0.98860    0.14460    1.000
    N9       N        0.05830    0.85250    0.14000    1.000
    N10      N        0.07840    0.77090    0.12040    1.000
    N11      N        0.61970    0.62560    0.08780    1.000
    N12      N        0.47420    0.68710    0.00720    1.000
    N13      N        0.45650    0.50710    0.93310    1.000
    N14      N        0.48860    0.44610    0.89460    1.000
    N15      N        0.35250    0.44170    0.89000    1.000
    N16      N        0.27090    0.42160    0.87040    1.000
    N17      N        0.12560    0.88030    0.83780    1.000
    N18      N        0.18710    0.02580    0.75720    1.000
    N19      N        0.54350    0.49290    0.43310    1.000
    N20      N        0.51140    0.55390    0.39460    1.000
    N21      N        0.64750    0.55830    0.39000    1.000
    N22      N        0.72910    0.57840    0.37040    1.000
    N23      N        0.87440    0.11970    0.33780    1.000
    N24      N        0.81290    0.97420    0.25720    1.000
    N25      N        0.49290    0.54350    0.56690    1.000
    N26      N        0.55390    0.51140    0.60540    1.000
    N27      N        0.55830    0.64750    0.61000    1.000
    N28      N        0.57840    0.72910    0.62960    1.000
    N29      N        0.11970    0.87440    0.66220    1.000
    N30      N        0.97420    0.81290    0.74280    1.000
    N31      N        0.50710    0.45650    0.06690    1.000
    N32      N        0.44610    0.48860    0.10540    1.000
    N33      N        0.44170    0.35250    0.11000    1.000
    N34      N        0.42160    0.27090    0.12960    1.000
    N35      N        0.88030    0.12560    0.16220    1.000
    N36      N        0.02580    0.18710    0.24280    1.000
    N37      N        0.04350    0.00710    0.31690    1.000
    N38      N        0.01140    0.94610    0.35540    1.000
    N39      N        0.14750    0.94170    0.36000    1.000
    N40      N        0.22910    0.92160    0.37960    1.000
    N41      N        0.37440    0.38030    0.41220    1.000
    N42      N        0.31290    0.52580    0.49280    1.000
    N43      N        0.95650    0.99290    0.81690    1.000
    N44      N        0.98860    0.05390    0.85540    1.000
    N45      N        0.85250    0.05830    0.86000    1.000
    N46      N        0.77090    0.07840    0.87960    1.000
    N47      N        0.62560    0.61970    0.91220    1.000
    N48      N        0.68710    0.47420    0.99280    1.000
    Cl1      Cl       0.88123    0.88123    0.00000    1.000
    O1       O        0.81850    0.88810    0.03880    1.000
    O2       O        0.94250    0.85600    0.03560    1.000
    O3       O        0.88810    0.81850    0.96120    1.000
    O4       O        0.85600    0.94250    0.96440    1.000
    Cl2      Cl       0.11877    0.11877    0.50000    1.000
    O5       O        0.18150    0.11190    0.53880    1.000
    O6       O        0.05750    0.14400    0.53560    1.000
    O7       O        0.11190    0.18150    0.46120    1.000
    O8       O        0.14400    0.05750    0.46440    1.000
    Cl3      Cl       0.61877    0.38123    0.25000    1.000
    O9       O        0.61190    0.31850    0.28880    1.000
    O10      O        0.64400    0.44250    0.28560    1.000
    O11      O        0.68150    0.38810    0.21120    1.000
    O12      O        0.55750    0.35600    0.21440    1.000
    Cl4      Cl       0.38123    0.61877    0.75000    1.000
    O13      O        0.38810    0.68150    0.78880    1.000
    O14      O        0.35600    0.55750    0.78560    1.000
    O15      O        0.31850    0.61190    0.71120    1.000
    O16      O        0.44250    0.64400    0.71440    1.000
