# CIF file generated by openbabel 3.1.0, see https://openbabel.org
data_I
_chemical_name_common 'image0'
_cell_length_a 14.1407
_cell_length_b 18.2814
_cell_length_c 21.4596
_cell_angle_alpha 90
_cell_angle_beta 99.359
_cell_angle_gamma 90
_space_group_name_H-M_alt 'P 1'
_space_group_name_Hall 'P 1'
loop_
    _symmetry_equiv_pos_as_xyz
    x,y,z
loop_
    _atom_site_label
    _atom_site_type_symbol
    _atom_site_fract_x
    _atom_site_fract_y
    _atom_site_fract_z
    _atom_site_occupancy
    Cd1      Cd       0.27337    0.23973    0.31166    1.000
    O1       O        0.33430    0.26219    0.21752    1.000
    O2       O        0.20780    0.19081    0.21333    1.000
    O3       O        0.36870    0.31001    0.37690    1.000
    O4       O        0.47790    0.34314    0.31689    1.000
    O5       O        0.35870    0.13952    0.33488    1.000
    O6       O        0.51010    0.16992    0.32848    1.000
    C1       C        0.29760    0.27380    0.08399    1.000
    H1       H        0.33850    0.30780    0.10650    1.000
    C2       C        0.25490    0.22290    0.11570    1.000
    C3       C        0.19360    0.16970    0.08162    1.000
    H2       H        0.16470    0.13450    0.10350    1.000
    C4       C        0.17690    0.17000    0.01730    1.000
    H3       H        0.13750    0.13450    0.99570    1.000
    C5       C        0.28110    0.27640    0.01672    1.000
    C6       C        0.26700    0.22370    0.18656    1.000
    C7       C        0.43250    0.41890    0.46369    1.000
    H4       H        0.38550    0.38680    0.47250    1.000
    C8       C        0.46930    0.41090    0.40889    1.000
    C9       C        0.53900    0.46090    0.39501    1.000
    H5       H        0.56360    0.45590    0.35760    1.000
    C10      C        0.57110    0.51620    0.43540    1.000
    H6       H        0.61690    0.54870    0.42520    1.000
    C11      C        0.46500    0.47530    0.50716    1.000
    C12      C        0.43670    0.34940    0.36390    1.000
    C13      C        0.41970    0.04414    0.43274    1.000
    H7       H        0.35570    0.04350    0.41390    1.000
    C14      C        0.48310    0.08853    0.40869    1.000
    C15      C        0.58030    0.08970    0.43626    1.000
    H8       H        0.62310    0.11940    0.41940    1.000
    C16      C        0.61210    0.04680    0.48820    1.000
    H9       H        0.67640    0.04840    0.50640    1.000
    C17      C        0.45090    0.99910    0.48612    1.000
    C18      C        0.44740    0.13701    0.35232    1.000
    O7       O        0.19480    0.20300    0.38810    1.000
    N1       N        0.09520    0.27000    0.43840    1.000
    C19      C        0.11070    0.22440    0.39460    1.000
    C20      C        0.02400    0.18430    0.36220    1.000
    H10      H        0.96810    0.20230    0.37730    1.000
    H11      H        0.03120    0.13300    0.37110    1.000
    H12      H        0.01710    0.19200    0.31750    1.000
    C21      C        0.18060    0.30380    0.47680    1.000
    C22      C        0.00720    0.29260    0.45830    1.000
    H13      H        0.02110    0.32700    0.49240    1.000
    H14      H        0.97550    0.25070    0.47230    1.000
    H15      H        0.96620    0.31520    0.42350    1.000
    N2       N        0.03680    0.28840    0.40110    1.000
    C23      C        0.07430    0.24350    0.35940    1.000
    C24      C        0.01990    0.23290    0.29730    1.000
    H16      H        0.05480    0.20150    0.27330    1.000
    H17      H        0.00930    0.27930    0.27640    1.000
    H18      H        0.95940    0.21090    0.30080    1.000
    C25      C        0.09030    0.29500    0.46330    1.000
    H19      H        0.05710    0.32690    0.48800    1.000
    H20      H        0.15250    0.31490    0.46100    1.000
    H21      H        0.09740    0.24760    0.48290    1.000
    C26      C        0.94390    0.32300    0.38030    1.000
    H22      H        0.92690    0.35230    0.41390    1.000
    H23      H        0.89610    0.28600    0.36880    1.000
    H24      H        0.94770    0.35360    0.34440    1.000
    O8       O        0.16280    0.21710    0.37490    1.000
    H25      H        0.22080    0.26620    0.49830    1.000
    H26      H        0.16060    0.33630    0.50730    1.000
    H27      H        0.21580    0.33080    0.44970    1.000
    Cd2      Cd       0.77337    0.73973    0.31166    1.000
    O9       O        0.83430    0.76219    0.21752    1.000
    O10      O        0.70780    0.69081    0.21333    1.000
    O11      O        0.86870    0.81001    0.37690    1.000
    O12      O        0.97790    0.84314    0.31689    1.000
    O13      O        0.85870    0.63952    0.33488    1.000
    O14      O        0.01010    0.66992    0.32848    1.000
    C27      C        0.79760    0.77380    0.08399    1.000
    H28      H        0.83850    0.80780    0.10650    1.000
    C28      C        0.75490    0.72290    0.11570    1.000
    C29      C        0.69360    0.66970    0.08162    1.000
    H29      H        0.66470    0.63450    0.10350    1.000
    C30      C        0.67690    0.67000    0.01730    1.000
    H30      H        0.63750    0.63450    0.99570    1.000
    C31      C        0.78110    0.77640    0.01672    1.000
    C32      C        0.76700    0.72370    0.18656    1.000
    C33      C        0.93250    0.91890    0.46369    1.000
    H31      H        0.88550    0.88680    0.47250    1.000
    C34      C        0.96930    0.91090    0.40889    1.000
    C35      C        0.03900    0.96090    0.39501    1.000
    H32      H        0.06360    0.95590    0.35760    1.000
    C36      C        0.07110    0.01620    0.43540    1.000
    H33      H        0.11690    0.04870    0.42520    1.000
    C37      C        0.96500    0.97530    0.50716    1.000
    C38      C        0.93670    0.84940    0.36390    1.000
    C39      C        0.91970    0.54414    0.43274    1.000
    H34      H        0.85570    0.54350    0.41390    1.000
    C40      C        0.98310    0.58853    0.40869    1.000
    C41      C        0.08030    0.58970    0.43626    1.000
    H35      H        0.12310    0.61940    0.41940    1.000
    C42      C        0.11210    0.54680    0.48820    1.000
    H36      H        0.17640    0.54840    0.50640    1.000
    C43      C        0.95090    0.49910    0.48612    1.000
    C44      C        0.94740    0.63701    0.35232    1.000
    O15      O        0.69480    0.70300    0.38810    1.000
    N3       N        0.59520    0.77000    0.43840    1.000
    C45      C        0.61070    0.72440    0.39460    1.000
    C46      C        0.52400    0.68430    0.36220    1.000
    H37      H        0.46810    0.70230    0.37730    1.000
    H38      H        0.53120    0.63300    0.37110    1.000
    H39      H        0.51710    0.69200    0.31750    1.000
    C47      C        0.68060    0.80380    0.47680    1.000
    C48      C        0.50720    0.79260    0.45830    1.000
    H40      H        0.52110    0.82700    0.49240    1.000
    H41      H        0.47550    0.75070    0.47230    1.000
    H42      H        0.46620    0.81520    0.42350    1.000
    N4       N        0.53680    0.78840    0.40110    1.000
    C49      C        0.57430    0.74350    0.35940    1.000
    C50      C        0.51990    0.73290    0.29730    1.000
    H43      H        0.55480    0.70150    0.27330    1.000
    H44      H        0.50930    0.77930    0.27640    1.000
    H45      H        0.45940    0.71090    0.30080    1.000
    C51      C        0.59030    0.79500    0.46330    1.000
    H46      H        0.55710    0.82690    0.48800    1.000
    H47      H        0.65250    0.81490    0.46100    1.000
    H48      H        0.59740    0.74760    0.48290    1.000
    C52      C        0.44390    0.82300    0.38030    1.000
    H49      H        0.42690    0.85230    0.41390    1.000
    H50      H        0.39610    0.78600    0.36880    1.000
    H51      H        0.44770    0.85360    0.34440    1.000
    O16      O        0.66280    0.71710    0.37490    1.000
    H52      H        0.72080    0.76620    0.49830    1.000
    H53      H        0.66060    0.83630    0.50730    1.000
    H54      H        0.71580    0.83080    0.44970    1.000
    Cd3      Cd       0.72663    0.23973    0.18834    1.000
    O17      O        0.66570    0.26219    0.28248    1.000
    O18      O        0.79220    0.19081    0.28667    1.000
    O19      O        0.63130    0.31001    0.12310    1.000
    O20      O        0.52210    0.34314    0.18311    1.000
    O21      O        0.64130    0.13952    0.16512    1.000
    O22      O        0.48990    0.16992    0.17152    1.000
    C53      C        0.70240    0.27380    0.41601    1.000
    H55      H        0.66150    0.30780    0.39350    1.000
    C54      C        0.74510    0.22290    0.38430    1.000
    C55      C        0.80640    0.16970    0.41838    1.000
    H56      H        0.83530    0.13450    0.39650    1.000
    C56      C        0.82310    0.17000    0.48270    1.000
    H57      H        0.86250    0.13450    0.50430    1.000
    C57      C        0.71890    0.27640    0.48328    1.000
    C58      C        0.73300    0.22370    0.31344    1.000
    C59      C        0.56750    0.41890    0.03631    1.000
    H58      H        0.61450    0.38680    0.02750    1.000
    C60      C        0.53070    0.41090    0.09111    1.000
    C61      C        0.46100    0.46090    0.10499    1.000
    H59      H        0.43640    0.45590    0.14240    1.000
    C62      C        0.42890    0.51620    0.06460    1.000
    H60      H        0.38310    0.54870    0.07480    1.000
    C63      C        0.53500    0.47530    0.99284    1.000
    C64      C        0.56330    0.34940    0.13610    1.000
    C65      C        0.58030    0.04414    0.06726    1.000
    H61      H        0.64430    0.04350    0.08610    1.000
    C66      C        0.51690    0.08853    0.09131    1.000
    C67      C        0.41970    0.08970    0.06374    1.000
    H62      H        0.37690    0.11940    0.08060    1.000
    C68      C        0.38790    0.04680    0.01180    1.000
    H63      H        0.32360    0.04840    0.99360    1.000
    C69      C        0.54910    0.99910    0.01388    1.000
    C70      C        0.55260    0.13701    0.14768    1.000
    O23      O        0.80520    0.20300    0.11190    1.000
    N5       N        0.90480    0.27000    0.06160    1.000
    C71      C        0.88930    0.22440    0.10540    1.000
    C72      C        0.97600    0.18430    0.13780    1.000
    H64      H        0.03190    0.20230    0.12270    1.000
    H65      H        0.96880    0.13300    0.12890    1.000
    H66      H        0.98290    0.19200    0.18250    1.000
    C73      C        0.81940    0.30380    0.02320    1.000
    C74      C        0.99280    0.29260    0.04170    1.000
    H67      H        0.97890    0.32700    0.00760    1.000
    H68      H        0.02450    0.25070    0.02770    1.000
    H69      H        0.03380    0.31520    0.07650    1.000
    N6       N        0.96320    0.28840    0.09890    1.000
    C75      C        0.92570    0.24350    0.14060    1.000
    C76      C        0.98010    0.23290    0.20270    1.000
    H70      H        0.94520    0.20150    0.22670    1.000
    H71      H        0.99070    0.27930    0.22360    1.000
    H72      H        0.04060    0.21090    0.19920    1.000
    C77      C        0.90970    0.29500    0.03670    1.000
    H73      H        0.94290    0.32690    0.01200    1.000
    H74      H        0.84750    0.31490    0.03900    1.000
    H75      H        0.90260    0.24760    0.01710    1.000
    C78      C        0.05610    0.32300    0.11970    1.000
    H76      H        0.07310    0.35230    0.08610    1.000
    H77      H        0.10390    0.28600    0.13120    1.000
    H78      H        0.05230    0.35360    0.15560    1.000
    O24      O        0.83720    0.21710    0.12510    1.000
    H79      H        0.77920    0.26620    0.00170    1.000
    H80      H        0.83940    0.33630    0.99270    1.000
    H81      H        0.78420    0.33080    0.05030    1.000
    Cd4      Cd       0.22663    0.73973    0.18834    1.000
    O25      O        0.16570    0.76219    0.28248    1.000
    O26      O        0.29220    0.69081    0.28667    1.000
    O27      O        0.13130    0.81001    0.12310    1.000
    O28      O        0.02210    0.84314    0.18311    1.000
    O29      O        0.14130    0.63952    0.16512    1.000
    O30      O        0.98990    0.66992    0.17152    1.000
    C79      C        0.20240    0.77380    0.41601    1.000
    H82      H        0.16150    0.80780    0.39350    1.000
    C80      C        0.24510    0.72290    0.38430    1.000
    C81      C        0.30640    0.66970    0.41838    1.000
    H83      H        0.33530    0.63450    0.39650    1.000
    C82      C        0.32310    0.67000    0.48270    1.000
    H84      H        0.36250    0.63450    0.50430    1.000
    C83      C        0.21890    0.77640    0.48328    1.000
    C84      C        0.23300    0.72370    0.31344    1.000
    C85      C        0.06750    0.91890    0.03631    1.000
    H85      H        0.11450    0.88680    0.02750    1.000
    C86      C        0.03070    0.91090    0.09111    1.000
    C87      C        0.96100    0.96090    0.10499    1.000
    H86      H        0.93640    0.95590    0.14240    1.000
    C88      C        0.92890    0.01620    0.06460    1.000
    H87      H        0.88310    0.04870    0.07480    1.000
    C89      C        0.03500    0.97530    0.99284    1.000
    C90      C        0.06330    0.84940    0.13610    1.000
    C91      C        0.08030    0.54414    0.06726    1.000
    H88      H        0.14430    0.54350    0.08610    1.000
    C92      C        0.01690    0.58853    0.09131    1.000
    C93      C        0.91970    0.58970    0.06374    1.000
    H89      H        0.87690    0.61940    0.08060    1.000
    C94      C        0.88790    0.54680    0.01180    1.000
    H90      H        0.82360    0.54840    0.99360    1.000
    C95      C        0.04910    0.49910    0.01388    1.000
    C96      C        0.05260    0.63701    0.14768    1.000
    O31      O        0.30520    0.70300    0.11190    1.000
    N7       N        0.40480    0.77000    0.06160    1.000
    C97      C        0.38930    0.72440    0.10540    1.000
    C98      C        0.47600    0.68430    0.13780    1.000
    H91      H        0.53190    0.70230    0.12270    1.000
    H92      H        0.46880    0.63300    0.12890    1.000
    H93      H        0.48290    0.69200    0.18250    1.000
    C99      C        0.31940    0.80380    0.02320    1.000
    C100     C        0.49280    0.79260    0.04170    1.000
    H94      H        0.47890    0.82700    0.00760    1.000
    H95      H        0.52450    0.75070    0.02770    1.000
    H96      H        0.53380    0.81520    0.07650    1.000
    N8       N        0.46320    0.78840    0.09890    1.000
    C101     C        0.42570    0.74350    0.14060    1.000
    C102     C        0.48010    0.73290    0.20270    1.000
    H97      H        0.44520    0.70150    0.22670    1.000
    H98      H        0.49070    0.77930    0.22360    1.000
    H99      H        0.54060    0.71090    0.19920    1.000
    C103     C        0.40970    0.79500    0.03670    1.000
    H100     H        0.44290    0.82690    0.01200    1.000
    H101     H        0.34750    0.81490    0.03900    1.000
    H102     H        0.40260    0.74760    0.01710    1.000
    C104     C        0.55610    0.82300    0.11970    1.000
    H103     H        0.57310    0.85230    0.08610    1.000
    H104     H        0.60390    0.78600    0.13120    1.000
    H105     H        0.55230    0.85360    0.15560    1.000
    O32      O        0.33720    0.71710    0.12510    1.000
    H106     H        0.27920    0.76620    0.00170    1.000
    H107     H        0.33940    0.83630    0.99270    1.000
    H108     H        0.28420    0.83080    0.05030    1.000
    Cd5      Cd       0.72663    0.76027    0.68834    1.000
    O33      O        0.66570    0.73781    0.78248    1.000
    O34      O        0.79220    0.80919    0.78667    1.000
    O35      O        0.63130    0.68999    0.62310    1.000
    O36      O        0.52210    0.65686    0.68311    1.000
    O37      O        0.64130    0.86048    0.66512    1.000
    O38      O        0.48990    0.83008    0.67152    1.000
    C105     C        0.70240    0.72620    0.91601    1.000
    H109     H        0.66150    0.69220    0.89350    1.000
    C106     C        0.74510    0.77710    0.88430    1.000
    C107     C        0.80640    0.83030    0.91838    1.000
    H110     H        0.83530    0.86550    0.89650    1.000
    C108     C        0.82310    0.83000    0.98270    1.000
    H111     H        0.86250    0.86550    0.00430    1.000
    C109     C        0.71890    0.72360    0.98328    1.000
    C110     C        0.73300    0.77630    0.81344    1.000
    C111     C        0.56750    0.58110    0.53631    1.000
    H112     H        0.61450    0.61320    0.52750    1.000
    C112     C        0.53070    0.58910    0.59111    1.000
    C113     C        0.46100    0.53910    0.60499    1.000
    H113     H        0.43640    0.54410    0.64240    1.000
    C114     C        0.42890    0.48380    0.56460    1.000
    H114     H        0.38310    0.45130    0.57480    1.000
    C115     C        0.53500    0.52470    0.49284    1.000
    C116     C        0.56330    0.65060    0.63610    1.000
    C117     C        0.58030    0.95586    0.56726    1.000
    H115     H        0.64430    0.95650    0.58610    1.000
    C118     C        0.51690    0.91147    0.59131    1.000
    C119     C        0.41970    0.91030    0.56374    1.000
    H116     H        0.37690    0.88060    0.58060    1.000
    C120     C        0.38790    0.95320    0.51180    1.000
    H117     H        0.32360    0.95160    0.49360    1.000
    C121     C        0.54910    0.00090    0.51388    1.000
    C122     C        0.55260    0.86299    0.64768    1.000
    O39      O        0.80520    0.79700    0.61190    1.000
    N9       N        0.90480    0.73000    0.56160    1.000
    C123     C        0.88930    0.77560    0.60540    1.000
    C124     C        0.97600    0.81570    0.63780    1.000
    H118     H        0.03190    0.79770    0.62270    1.000
    H119     H        0.96880    0.86700    0.62890    1.000
    H120     H        0.98290    0.80800    0.68250    1.000
    C125     C        0.81940    0.69620    0.52320    1.000
    C126     C        0.99280    0.70740    0.54170    1.000
    H121     H        0.97890    0.67300    0.50760    1.000
    H122     H        0.02450    0.74930    0.52770    1.000
    H123     H        0.03380    0.68480    0.57650    1.000
    N10      N        0.96320    0.71160    0.59890    1.000
    C127     C        0.92570    0.75650    0.64060    1.000
    C128     C        0.98010    0.76710    0.70270    1.000
    H124     H        0.94520    0.79850    0.72670    1.000
    H125     H        0.99070    0.72070    0.72360    1.000
    H126     H        0.04060    0.78910    0.69920    1.000
    C129     C        0.90970    0.70500    0.53670    1.000
    H127     H        0.94290    0.67310    0.51200    1.000
    H128     H        0.84750    0.68510    0.53900    1.000
    H129     H        0.90260    0.75240    0.51710    1.000
    C130     C        0.05610    0.67700    0.61970    1.000
    H130     H        0.07310    0.64770    0.58610    1.000
    H131     H        0.10390    0.71400    0.63120    1.000
    H132     H        0.05230    0.64640    0.65560    1.000
    O40      O        0.83720    0.78290    0.62510    1.000
    H133     H        0.77920    0.73380    0.50170    1.000
    H134     H        0.83940    0.66370    0.49270    1.000
    H135     H        0.78420    0.66920    0.55030    1.000
    Cd6      Cd       0.22663    0.26027    0.68834    1.000
    O41      O        0.16570    0.23781    0.78248    1.000
    O42      O        0.29220    0.30919    0.78667    1.000
    O43      O        0.13130    0.18999    0.62310    1.000
    O44      O        0.02210    0.15686    0.68311    1.000
    O45      O        0.14130    0.36048    0.66512    1.000
    O46      O        0.98990    0.33008    0.67152    1.000
    C131     C        0.20240    0.22620    0.91601    1.000
    H136     H        0.16150    0.19220    0.89350    1.000
    C132     C        0.24510    0.27710    0.88430    1.000
    C133     C        0.30640    0.33030    0.91838    1.000
    H137     H        0.33530    0.36550    0.89650    1.000
    C134     C        0.32310    0.33000    0.98270    1.000
    H138     H        0.36250    0.36550    0.00430    1.000
    C135     C        0.21890    0.22360    0.98328    1.000
    C136     C        0.23300    0.27630    0.81344    1.000
    C137     C        0.06750    0.08110    0.53631    1.000
    H139     H        0.11450    0.11320    0.52750    1.000
    C138     C        0.03070    0.08910    0.59111    1.000
    C139     C        0.96100    0.03910    0.60499    1.000
    H140     H        0.93640    0.04410    0.64240    1.000
    C140     C        0.92890    0.98380    0.56460    1.000
    H141     H        0.88310    0.95130    0.57480    1.000
    C141     C        0.03500    0.02470    0.49284    1.000
    C142     C        0.06330    0.15060    0.63610    1.000
    C143     C        0.08030    0.45586    0.56726    1.000
    H142     H        0.14430    0.45650    0.58610    1.000
    C144     C        0.01690    0.41147    0.59131    1.000
    C145     C        0.91970    0.41030    0.56374    1.000
    H143     H        0.87690    0.38060    0.58060    1.000
    C146     C        0.88790    0.45320    0.51180    1.000
    H144     H        0.82360    0.45160    0.49360    1.000
    C147     C        0.04910    0.50090    0.51388    1.000
    C148     C        0.05260    0.36299    0.64768    1.000
    O47      O        0.30520    0.29700    0.61190    1.000
    N11      N        0.40480    0.23000    0.56160    1.000
    C149     C        0.38930    0.27560    0.60540    1.000
    C150     C        0.47600    0.31570    0.63780    1.000
    H145     H        0.53190    0.29770    0.62270    1.000
    H146     H        0.46880    0.36700    0.62890    1.000
    H147     H        0.48290    0.30800    0.68250    1.000
    C151     C        0.31940    0.19620    0.52320    1.000
    C152     C        0.49280    0.20740    0.54170    1.000
    H148     H        0.47890    0.17300    0.50760    1.000
    H149     H        0.52450    0.24930    0.52770    1.000
    H150     H        0.53380    0.18480    0.57650    1.000
    N12      N        0.46320    0.21160    0.59890    1.000
    C153     C        0.42570    0.25650    0.64060    1.000
    C154     C        0.48010    0.26710    0.70270    1.000
    H151     H        0.44520    0.29850    0.72670    1.000
    H152     H        0.49070    0.22070    0.72360    1.000
    H153     H        0.54060    0.28910    0.69920    1.000
    C155     C        0.40970    0.20500    0.53670    1.000
    H154     H        0.44290    0.17310    0.51200    1.000
    H155     H        0.34750    0.18510    0.53900    1.000
    H156     H        0.40260    0.25240    0.51710    1.000
    C156     C        0.55610    0.17700    0.61970    1.000
    H157     H        0.57310    0.14770    0.58610    1.000
    H158     H        0.60390    0.21400    0.63120    1.000
    H159     H        0.55230    0.14640    0.65560    1.000
    O48      O        0.33720    0.28290    0.62510    1.000
    H160     H        0.27920    0.23380    0.50170    1.000
    H161     H        0.33940    0.16370    0.49270    1.000
    H162     H        0.28420    0.16920    0.55030    1.000
    Cd7      Cd       0.27337    0.76027    0.81166    1.000
    O49      O        0.33430    0.73781    0.71752    1.000
    O50      O        0.20780    0.80919    0.71333    1.000
    O51      O        0.36870    0.68999    0.87690    1.000
    O52      O        0.47790    0.65686    0.81689    1.000
    O53      O        0.35870    0.86048    0.83488    1.000
    O54      O        0.51010    0.83008    0.82848    1.000
    C157     C        0.29760    0.72620    0.58399    1.000
    H163     H        0.33850    0.69220    0.60650    1.000
    C158     C        0.25490    0.77710    0.61570    1.000
    C159     C        0.19360    0.83030    0.58162    1.000
    H164     H        0.16470    0.86550    0.60350    1.000
    C160     C        0.17690    0.83000    0.51730    1.000
    H165     H        0.13750    0.86550    0.49570    1.000
    C161     C        0.28110    0.72360    0.51672    1.000
    C162     C        0.26700    0.77630    0.68656    1.000
    C163     C        0.43250    0.58110    0.96369    1.000
    H166     H        0.38550    0.61320    0.97250    1.000
    C164     C        0.46930    0.58910    0.90889    1.000
    C165     C        0.53900    0.53910    0.89501    1.000
    H167     H        0.56360    0.54410    0.85760    1.000
    C166     C        0.57110    0.48380    0.93540    1.000
    H168     H        0.61690    0.45130    0.92520    1.000
    C167     C        0.46500    0.52470    0.00716    1.000
    C168     C        0.43670    0.65060    0.86390    1.000
    C169     C        0.41970    0.95586    0.93274    1.000
    H169     H        0.35570    0.95650    0.91390    1.000
    C170     C        0.48310    0.91147    0.90869    1.000
    C171     C        0.58030    0.91030    0.93626    1.000
    H170     H        0.62310    0.88060    0.91940    1.000
    C172     C        0.61210    0.95320    0.98820    1.000
    H171     H        0.67640    0.95160    0.00640    1.000
    C173     C        0.45090    0.00090    0.98612    1.000
    C174     C        0.44740    0.86299    0.85232    1.000
    O55      O        0.19480    0.79700    0.88810    1.000
    N13      N        0.09520    0.73000    0.93840    1.000
    C175     C        0.11070    0.77560    0.89460    1.000
    C176     C        0.02400    0.81570    0.86220    1.000
    H172     H        0.96810    0.79770    0.87730    1.000
    H173     H        0.03120    0.86700    0.87110    1.000
    H174     H        0.01710    0.80800    0.81750    1.000
    C177     C        0.18060    0.69620    0.97680    1.000
    C178     C        0.00720    0.70740    0.95830    1.000
    H175     H        0.02110    0.67300    0.99240    1.000
    H176     H        0.97550    0.74930    0.97230    1.000
    H177     H        0.96620    0.68480    0.92350    1.000
    N14      N        0.03680    0.71160    0.90110    1.000
    C179     C        0.07430    0.75650    0.85940    1.000
    C180     C        0.01990    0.76710    0.79730    1.000
    H178     H        0.05480    0.79850    0.77330    1.000
    H179     H        0.00930    0.72070    0.77640    1.000
    H180     H        0.95940    0.78910    0.80080    1.000
    C181     C        0.09030    0.70500    0.96330    1.000
    H181     H        0.05710    0.67310    0.98800    1.000
    H182     H        0.15250    0.68510    0.96100    1.000
    H183     H        0.09740    0.75240    0.98290    1.000
    C182     C        0.94390    0.67700    0.88030    1.000
    H184     H        0.92690    0.64770    0.91390    1.000
    H185     H        0.89610    0.71400    0.86880    1.000
    H186     H        0.94770    0.64640    0.84440    1.000
    O56      O        0.16280    0.78290    0.87490    1.000
    H187     H        0.22080    0.73380    0.99830    1.000
    H188     H        0.16060    0.66370    0.00730    1.000
    H189     H        0.21580    0.66920    0.94970    1.000
    Cd8      Cd       0.77337    0.26027    0.81166    1.000
    O57      O        0.83430    0.23781    0.71752    1.000
    O58      O        0.70780    0.30919    0.71333    1.000
    O59      O        0.86870    0.18999    0.87690    1.000
    O60      O        0.97790    0.15686    0.81689    1.000
    O61      O        0.85870    0.36048    0.83488    1.000
    O62      O        0.01010    0.33008    0.82848    1.000
    C183     C        0.79760    0.22620    0.58399    1.000
    H190     H        0.83850    0.19220    0.60650    1.000
    C184     C        0.75490    0.27710    0.61570    1.000
    C185     C        0.69360    0.33030    0.58162    1.000
    H191     H        0.66470    0.36550    0.60350    1.000
    C186     C        0.67690    0.33000    0.51730    1.000
    H192     H        0.63750    0.36550    0.49570    1.000
    C187     C        0.78110    0.22360    0.51672    1.000
    C188     C        0.76700    0.27630    0.68656    1.000
    C189     C        0.93250    0.08110    0.96369    1.000
    H193     H        0.88550    0.11320    0.97250    1.000
    C190     C        0.96930    0.08910    0.90889    1.000
    C191     C        0.03900    0.03910    0.89501    1.000
    H194     H        0.06360    0.04410    0.85760    1.000
    C192     C        0.07110    0.98380    0.93540    1.000
    H195     H        0.11690    0.95130    0.92520    1.000
    C193     C        0.96500    0.02470    0.00716    1.000
    C194     C        0.93670    0.15060    0.86390    1.000
    C195     C        0.91970    0.45586    0.93274    1.000
    H196     H        0.85570    0.45650    0.91390    1.000
    C196     C        0.98310    0.41147    0.90869    1.000
    C197     C        0.08030    0.41030    0.93626    1.000
    H197     H        0.12310    0.38060    0.91940    1.000
    C198     C        0.11210    0.45320    0.98820    1.000
    H198     H        0.17640    0.45160    0.00640    1.000
    C199     C        0.95090    0.50090    0.98612    1.000
    C200     C        0.94740    0.36299    0.85232    1.000
    O63      O        0.69480    0.29700    0.88810    1.000
    N15      N        0.59520    0.23000    0.93840    1.000
    C201     C        0.61070    0.27560    0.89460    1.000
    C202     C        0.52400    0.31570    0.86220    1.000
    H199     H        0.46810    0.29770    0.87730    1.000
    H200     H        0.53120    0.36700    0.87110    1.000
    H201     H        0.51710    0.30800    0.81750    1.000
    C203     C        0.68060    0.19620    0.97680    1.000
    C204     C        0.50720    0.20740    0.95830    1.000
    H202     H        0.52110    0.17300    0.99240    1.000
    H203     H        0.47550    0.24930    0.97230    1.000
    H204     H        0.46620    0.18480    0.92350    1.000
    N16      N        0.53680    0.21160    0.90110    1.000
    C205     C        0.57430    0.25650    0.85940    1.000
    C206     C        0.51990    0.26710    0.79730    1.000
    H205     H        0.55480    0.29850    0.77330    1.000
    H206     H        0.50930    0.22070    0.77640    1.000
    H207     H        0.45940    0.28910    0.80080    1.000
    C207     C        0.59030    0.20500    0.96330    1.000
    H208     H        0.55710    0.17310    0.98800    1.000
    H209     H        0.65250    0.18510    0.96100    1.000
    H210     H        0.59740    0.25240    0.98290    1.000
    C208     C        0.44390    0.17700    0.88030    1.000
    H211     H        0.42690    0.14770    0.91390    1.000
    H212     H        0.39610    0.21400    0.86880    1.000
    H213     H        0.44770    0.14640    0.84440    1.000
    O64      O        0.66280    0.28290    0.87490    1.000
    H214     H        0.72080    0.23380    0.99830    1.000
    H215     H        0.66060    0.16370    0.00730    1.000
    H216     H        0.71580    0.16920    0.94970    1.000
    Cd9      Cd       0.50000    0.25229    0.25000    1.000
    Cd10     Cd       0.00000    0.75229    0.25000    1.000
    Cd11     Cd       0.50000    0.74771    0.75000    1.000
    Cd12     Cd       0.00000    0.24771    0.75000    1.000
