# CIF file generated by openbabel 3.1.0, see https://openbabel.org
data_I
_chemical_name_common 'image0'
_cell_length_a 11.348
_cell_length_b 7.652
_cell_length_c 7.042
_cell_angle_alpha 90
_cell_angle_beta 106.07
_cell_angle_gamma 90
_space_group_name_H-M_alt 'P 1'
_space_group_name_Hall 'P 1'
loop_
    _symmetry_equiv_pos_as_xyz
    x,y,z
loop_
    _atom_site_label
    _atom_site_type_symbol
    _atom_site_fract_x
    _atom_site_fract_y
    _atom_site_fract_z
    _atom_site_occupancy
    N1       N        0.94170    0.22160    0.18830    1.000
    C1       C        0.96130    0.32850    0.30570    1.000
    N2       N        0.05830    0.22160    0.81170    1.000
    C2       C        0.03870    0.32850    0.69430    1.000
    N3       N        0.05830    0.77840    0.81170    1.000
    C3       C        0.03870    0.67150    0.69430    1.000
    N4       N        0.94170    0.77840    0.18830    1.000
    C4       C        0.96130    0.67150    0.30570    1.000
    Cd1      Cd       0.00000    0.00000    0.00000    1.000
    Ni1      Ni       0.00000    0.50000    0.50000    1.000
    N5       N        0.19590    0.00000    0.21060    1.000
    C5       C        0.21120    0.00000    0.42730    1.000
    C6       C        0.34300    0.00000    0.54840    1.000
    C7       C        0.35880    0.00000    0.76870    1.000
    C8       C        0.49350    0.00000    0.88730    1.000
    N6       N        0.80410    0.00000    0.78940    1.000
    C9       C        0.78880    0.00000    0.57270    1.000
    C10      C        0.65700    0.00000    0.45160    1.000
    C11      C        0.64120    0.00000    0.23130    1.000
    C12      C        0.50650    0.00000    0.11270    1.000
