# CIF file generated by openbabel 3.1.0, see https://openbabel.org
data_I
_chemical_name_common 'image0'
_cell_length_a 31.98
_cell_length_b 7.904
_cell_length_c 26.8
_cell_angle_alpha 90
_cell_angle_beta 90
_cell_angle_gamma 90
_space_group_name_H-M_alt 'P 1'
_space_group_name_Hall 'P 1'
loop_
    _symmetry_equiv_pos_as_xyz
    x,y,z
loop_
    _atom_site_label
    _atom_site_type_symbol
    _atom_site_fract_x
    _atom_site_fract_y
    _atom_site_fract_z
    _atom_site_occupancy
    Cd1      Cd       0.10837    0.63406    0.43443    1.000
    C1       C        0.17500    0.98980    0.53070    1.000
    C2       C        0.08100    0.23860    0.58440    1.000
    H1       H        0.09270    0.33560    0.59830    1.000
    C3       C        0.09040    0.38390    0.50490    1.000
    C4       C        0.24170    0.16430    0.63200    1.000
    H2       H        0.26640    0.22500    0.63530    1.000
    C5       C        0.07800    0.22920    0.53650    1.000
    C6       C        0.06450    0.08470    0.51360    1.000
    H3       H        0.06300    0.07970    0.47900    1.000
    C7       C        0.05290    0.94640    0.54170    1.000
    N1       N        0.17390    0.08830    0.48820    1.000
    H4       H        0.18340    0.18980    0.48590    1.000
    O1       O        0.06990    0.40840    0.46470    1.000
    C8       C        0.19040    0.03430    0.57850    1.000
    O2       O        0.11970    0.47720    0.51850    1.000
    C9       C        0.05390    0.96040    0.59360    1.000
    H5       H        0.04540    0.86820    0.61260    1.000
    C10      C        0.06700    0.10410    0.61800    1.000
    C11      C        0.06990    0.11840    0.67440    1.000
    C12      C        0.15670    0.84520    0.51710    1.000
    H6       H        0.15290    0.75430    0.53860    1.000
    C13      C        0.03770    0.78650    0.51650    1.000
    O3       O        0.07910    0.07060    0.86040    1.000
    O4       O        0.11270    0.30310    0.84580    1.000
    C14      C        0.09200    0.17890    0.83190    1.000
    O5       O        0.04260    0.77380    0.46850    1.000
    O6       O        0.02120    0.67150    0.54170    1.000
    C15      C        0.08240    0.16310    0.77580    1.000
    C16      C        0.08600    0.26500    0.69540    1.000
    H7       H        0.09150    0.35660    0.67470    1.000
    C17      C        0.09360    0.27970    0.74200    1.000
    H8       H        0.10760    0.37590    0.75300    1.000
    C18      C        0.16850    0.98200    0.62050    1.000
    H9       H        0.14410    0.91910    0.61710    1.000
    C19      C        0.18360    0.02510    0.66880    1.000
    H10      H        0.16870    0.99220    0.69700    1.000
    C20      C        0.22080    0.11750    0.67380    1.000
    C21      C        0.22720    0.12410    0.58370    1.000
    H11      H        0.24230    0.15770    0.55570    1.000
    C22      C        0.23650    0.16340    0.72490    1.000
    C23      C        0.26830    0.28290    0.81660    1.000
    C24      C        0.22490    0.27980    0.80880    1.000
    H12      H        0.20640    0.31900    0.83300    1.000
    C25      C        0.27990    0.16720    0.73490    1.000
    H13      H        0.29850    0.13100    0.71040    1.000
    C26      C        0.21050    0.21510    0.76310    1.000
    H14      H        0.18180    0.20660    0.75830    1.000
    C27      C        0.29560    0.22390    0.78040    1.000
    H15      H        0.32420    0.22210    0.78650    1.000
    C28      C        0.28490    0.35860    0.86140    1.000
    N2       N        0.32480    0.41110    0.86750    1.000
    C29      C        0.26390    0.41320    0.90330    1.000
    H16      H        0.23580    0.39680    0.91030    1.000
    N3       N        0.14430    0.84380    0.46900    1.000
    C30      C        0.33030    0.48940    0.91130    1.000
    N4       N        0.29200    0.49510    0.93230    1.000
    H17      H        0.28620    0.54380    0.96020    1.000
    C31      C        0.15570    0.00110    0.45100    1.000
    H18      H        0.15140    0.04000    0.41870    1.000
    C32      C        0.06080    0.99320    0.70560    1.000
    H19      H        0.05030    0.89200    0.69310    1.000
    N5       N        0.06690    0.01200    0.75710    1.000
    H20      H        0.06110    0.93020    0.77700    1.000
    Cd2      Cd       0.10837    0.13406    0.93443    1.000
    C33      C        0.17500    0.48980    0.03070    1.000
    C34      C        0.08100    0.73860    0.08440    1.000
    H21      H        0.09270    0.83560    0.09830    1.000
    C35      C        0.09040    0.88390    0.00490    1.000
    C36      C        0.24170    0.66430    0.13200    1.000
    H22      H        0.26640    0.72500    0.13530    1.000
    C37      C        0.07800    0.72920    0.03650    1.000
    C38      C        0.06450    0.58470    0.01360    1.000
    H23      H        0.06300    0.57970    0.97900    1.000
    C39      C        0.05290    0.44640    0.04170    1.000
    N6       N        0.17390    0.58830    0.98820    1.000
    H24      H        0.18340    0.68980    0.98590    1.000
    O7       O        0.06990    0.90840    0.96470    1.000
    C40      C        0.19040    0.53430    0.07850    1.000
    O8       O        0.11970    0.97720    0.01850    1.000
    C41      C        0.05390    0.46040    0.09360    1.000
    H25      H        0.04540    0.36820    0.11260    1.000
    C42      C        0.06700    0.60410    0.11800    1.000
    C43      C        0.06990    0.61840    0.17440    1.000
    C44      C        0.15670    0.34520    0.01710    1.000
    H26      H        0.15290    0.25430    0.03860    1.000
    C45      C        0.03770    0.28650    0.01650    1.000
    O9       O        0.07910    0.57060    0.36040    1.000
    O10      O        0.11270    0.80310    0.34580    1.000
    C46      C        0.09200    0.67890    0.33190    1.000
    O11      O        0.04260    0.27380    0.96850    1.000
    O12      O        0.02120    0.17150    0.04170    1.000
    C47      C        0.08240    0.66310    0.27580    1.000
    C48      C        0.08600    0.76500    0.19540    1.000
    H27      H        0.09150    0.85660    0.17470    1.000
    C49      C        0.09360    0.77970    0.24200    1.000
    H28      H        0.10760    0.87590    0.25300    1.000
    C50      C        0.16850    0.48200    0.12050    1.000
    H29      H        0.14410    0.41910    0.11710    1.000
    C51      C        0.18360    0.52510    0.16880    1.000
    H30      H        0.16870    0.49220    0.19700    1.000
    C52      C        0.22080    0.61750    0.17380    1.000
    C53      C        0.22720    0.62410    0.08370    1.000
    H31      H        0.24230    0.65770    0.05570    1.000
    C54      C        0.23650    0.66340    0.22490    1.000
    C55      C        0.26830    0.78290    0.31660    1.000
    C56      C        0.22490    0.77980    0.30880    1.000
    H32      H        0.20640    0.81900    0.33300    1.000
    C57      C        0.27990    0.66720    0.23490    1.000
    H33      H        0.29850    0.63100    0.21040    1.000
    C58      C        0.21050    0.71510    0.26310    1.000
    H34      H        0.18180    0.70660    0.25830    1.000
    C59      C        0.29560    0.72390    0.28040    1.000
    H35      H        0.32420    0.72210    0.28650    1.000
    C60      C        0.28490    0.85860    0.36140    1.000
    N7       N        0.32480    0.91110    0.36750    1.000
    C61      C        0.26390    0.91320    0.40330    1.000
    H36      H        0.23580    0.89680    0.41030    1.000
    N8       N        0.14430    0.34380    0.96900    1.000
    C62      C        0.33030    0.98940    0.41130    1.000
    N9       N        0.29200    0.99510    0.43230    1.000
    H37      H        0.28620    0.04380    0.46020    1.000
    C63      C        0.15570    0.50110    0.95100    1.000
    H38      H        0.15140    0.54000    0.91870    1.000
    C64      C        0.06080    0.49320    0.20560    1.000
    H39      H        0.05030    0.39200    0.19310    1.000
    N10      N        0.06690    0.51200    0.25710    1.000
    H40      H        0.06110    0.43020    0.27700    1.000
    Cd3      Cd       0.89163    0.36594    0.43443    1.000
    C65      C        0.82500    0.01020    0.53070    1.000
    C66      C        0.91900    0.76140    0.58440    1.000
    H41      H        0.90730    0.66440    0.59830    1.000
    C67      C        0.90960    0.61610    0.50490    1.000
    C68      C        0.75830    0.83570    0.63200    1.000
    H42      H        0.73360    0.77500    0.63530    1.000
    C69      C        0.92200    0.77080    0.53650    1.000
    C70      C        0.93550    0.91530    0.51360    1.000
    H43      H        0.93700    0.92030    0.47900    1.000
    C71      C        0.94710    0.05360    0.54170    1.000
    N11      N        0.82610    0.91170    0.48820    1.000
    H44      H        0.81660    0.81020    0.48590    1.000
    O13      O        0.93010    0.59160    0.46470    1.000
    C72      C        0.80960    0.96570    0.57850    1.000
    O14      O        0.88030    0.52280    0.51850    1.000
    C73      C        0.94610    0.03960    0.59360    1.000
    H45      H        0.95460    0.13180    0.61260    1.000
    C74      C        0.93300    0.89590    0.61800    1.000
    C75      C        0.93010    0.88160    0.67440    1.000
    C76      C        0.84330    0.15480    0.51710    1.000
    H46      H        0.84710    0.24570    0.53860    1.000
    C77      C        0.96230    0.21350    0.51650    1.000
    O15      O        0.92090    0.92940    0.86040    1.000
    O16      O        0.88730    0.69690    0.84580    1.000
    C78      C        0.90800    0.82110    0.83190    1.000
    O17      O        0.95740    0.22620    0.46850    1.000
    O18      O        0.97880    0.32850    0.54170    1.000
    C79      C        0.91760    0.83690    0.77580    1.000
    C80      C        0.91400    0.73500    0.69540    1.000
    H47      H        0.90850    0.64340    0.67470    1.000
    C81      C        0.90640    0.72030    0.74200    1.000
    H48      H        0.89240    0.62410    0.75300    1.000
    C82      C        0.83150    0.01800    0.62050    1.000
    H49      H        0.85590    0.08090    0.61710    1.000
    C83      C        0.81640    0.97490    0.66880    1.000
    H50      H        0.83130    0.00780    0.69700    1.000
    C84      C        0.77920    0.88250    0.67380    1.000
    C85      C        0.77280    0.87590    0.58370    1.000
    H51      H        0.75770    0.84230    0.55570    1.000
    C86      C        0.76350    0.83660    0.72490    1.000
    C87      C        0.73170    0.71710    0.81660    1.000
    C88      C        0.77510    0.72020    0.80880    1.000
    H52      H        0.79360    0.68100    0.83300    1.000
    C89      C        0.72010    0.83280    0.73490    1.000
    H53      H        0.70150    0.86900    0.71040    1.000
    C90      C        0.78950    0.78490    0.76310    1.000
    H54      H        0.81820    0.79340    0.75830    1.000
    C91      C        0.70440    0.77610    0.78040    1.000
    H55      H        0.67580    0.77790    0.78650    1.000
    C92      C        0.71510    0.64140    0.86140    1.000
    N12      N        0.67520    0.58890    0.86750    1.000
    C93      C        0.73610    0.58680    0.90330    1.000
    H56      H        0.76420    0.60320    0.91030    1.000
    N13      N        0.85570    0.15620    0.46900    1.000
    C94      C        0.66970    0.51060    0.91130    1.000
    N14      N        0.70800    0.50490    0.93230    1.000
    H57      H        0.71380    0.45620    0.96020    1.000
    C95      C        0.84430    0.99890    0.45100    1.000
    H58      H        0.84860    0.96000    0.41870    1.000
    C96      C        0.93920    0.00680    0.70560    1.000
    H59      H        0.94970    0.10800    0.69310    1.000
    N15      N        0.93310    0.98800    0.75710    1.000
    H60      H        0.93890    0.06980    0.77700    1.000
    Cd4      Cd       0.89163    0.86594    0.93443    1.000
    C97      C        0.82500    0.51020    0.03070    1.000
    C98      C        0.91900    0.26140    0.08440    1.000
    H61      H        0.90730    0.16440    0.09830    1.000
    C99      C        0.90960    0.11610    0.00490    1.000
    C100     C        0.75830    0.33570    0.13200    1.000
    H62      H        0.73360    0.27500    0.13530    1.000
    C101     C        0.92200    0.27080    0.03650    1.000
    C102     C        0.93550    0.41530    0.01360    1.000
    H63      H        0.93700    0.42030    0.97900    1.000
    C103     C        0.94710    0.55360    0.04170    1.000
    N16      N        0.82610    0.41170    0.98820    1.000
    H64      H        0.81660    0.31020    0.98590    1.000
    O19      O        0.93010    0.09160    0.96470    1.000
    C104     C        0.80960    0.46570    0.07850    1.000
    O20      O        0.88030    0.02280    0.01850    1.000
    C105     C        0.94610    0.53960    0.09360    1.000
    H65      H        0.95460    0.63180    0.11260    1.000
    C106     C        0.93300    0.39590    0.11800    1.000
    C107     C        0.93010    0.38160    0.17440    1.000
    C108     C        0.84330    0.65480    0.01710    1.000
    H66      H        0.84710    0.74570    0.03860    1.000
    C109     C        0.96230    0.71350    0.01650    1.000
    O21      O        0.92090    0.42940    0.36040    1.000
    O22      O        0.88730    0.19690    0.34580    1.000
    C110     C        0.90800    0.32110    0.33190    1.000
    O23      O        0.95740    0.72620    0.96850    1.000
    O24      O        0.97880    0.82850    0.04170    1.000
    C111     C        0.91760    0.33690    0.27580    1.000
    C112     C        0.91400    0.23500    0.19540    1.000
    H67      H        0.90850    0.14340    0.17470    1.000
    C113     C        0.90640    0.22030    0.24200    1.000
    H68      H        0.89240    0.12410    0.25300    1.000
    C114     C        0.83150    0.51800    0.12050    1.000
    H69      H        0.85590    0.58090    0.11710    1.000
    C115     C        0.81640    0.47490    0.16880    1.000
    H70      H        0.83130    0.50780    0.19700    1.000
    C116     C        0.77920    0.38250    0.17380    1.000
    C117     C        0.77280    0.37590    0.08370    1.000
    H71      H        0.75770    0.34230    0.05570    1.000
    C118     C        0.76350    0.33660    0.22490    1.000
    C119     C        0.73170    0.21710    0.31660    1.000
    C120     C        0.77510    0.22020    0.30880    1.000
    H72      H        0.79360    0.18100    0.33300    1.000
    C121     C        0.72010    0.33280    0.23490    1.000
    H73      H        0.70150    0.36900    0.21040    1.000
    C122     C        0.78950    0.28490    0.26310    1.000
    H74      H        0.81820    0.29340    0.25830    1.000
    C123     C        0.70440    0.27610    0.28040    1.000
    H75      H        0.67580    0.27790    0.28650    1.000
    C124     C        0.71510    0.14140    0.36140    1.000
    N17      N        0.67520    0.08890    0.36750    1.000
    C125     C        0.73610    0.08680    0.40330    1.000
    H76      H        0.76420    0.10320    0.41030    1.000
    N18      N        0.85570    0.65620    0.96900    1.000
    C126     C        0.66970    0.01060    0.41130    1.000
    N19      N        0.70800    0.00490    0.43230    1.000
    H77      H        0.71380    0.95620    0.46020    1.000
    C127     C        0.84430    0.49890    0.95100    1.000
    H78      H        0.84860    0.46000    0.91870    1.000
    C128     C        0.93920    0.50680    0.20560    1.000
    H79      H        0.94970    0.60800    0.19310    1.000
    N20      N        0.93310    0.48800    0.25710    1.000
    H80      H        0.93890    0.56980    0.27700    1.000
    Cd5      Cd       0.60837    0.86594    0.43443    1.000
    C129     C        0.67500    0.51020    0.53070    1.000
    C130     C        0.58100    0.26140    0.58440    1.000
    H81      H        0.59270    0.16440    0.59830    1.000
    C131     C        0.59040    0.11610    0.50490    1.000
    C132     C        0.74170    0.33570    0.63200    1.000
    H82      H        0.76640    0.27500    0.63530    1.000
    C133     C        0.57800    0.27080    0.53650    1.000
    C134     C        0.56450    0.41530    0.51360    1.000
    H83      H        0.56300    0.42030    0.47900    1.000
    C135     C        0.55290    0.55360    0.54170    1.000
    N21      N        0.67390    0.41170    0.48820    1.000
    H84      H        0.68340    0.31020    0.48590    1.000
    O25      O        0.56990    0.09160    0.46470    1.000
    C136     C        0.69040    0.46570    0.57850    1.000
    O26      O        0.61970    0.02280    0.51850    1.000
    C137     C        0.55390    0.53960    0.59360    1.000
    H85      H        0.54540    0.63180    0.61260    1.000
    C138     C        0.56700    0.39590    0.61800    1.000
    C139     C        0.56990    0.38160    0.67440    1.000
    C140     C        0.65670    0.65480    0.51710    1.000
    H86      H        0.65290    0.74570    0.53860    1.000
    C141     C        0.53770    0.71350    0.51650    1.000
    O27      O        0.57910    0.42940    0.86040    1.000
    O28      O        0.61270    0.19690    0.84580    1.000
    C142     C        0.59200    0.32110    0.83190    1.000
    O29      O        0.54260    0.72620    0.46850    1.000
    O30      O        0.52120    0.82850    0.54170    1.000
    C143     C        0.58240    0.33690    0.77580    1.000
    C144     C        0.58600    0.23500    0.69540    1.000
    H87      H        0.59150    0.14340    0.67470    1.000
    C145     C        0.59360    0.22030    0.74200    1.000
    H88      H        0.60760    0.12410    0.75300    1.000
    C146     C        0.66850    0.51800    0.62050    1.000
    H89      H        0.64410    0.58090    0.61710    1.000
    C147     C        0.68360    0.47490    0.66880    1.000
    H90      H        0.66870    0.50780    0.69700    1.000
    C148     C        0.72080    0.38250    0.67380    1.000
    C149     C        0.72720    0.37590    0.58370    1.000
    H91      H        0.74230    0.34230    0.55570    1.000
    C150     C        0.73650    0.33660    0.72490    1.000
    C151     C        0.76830    0.21710    0.81660    1.000
    C152     C        0.72490    0.22020    0.80880    1.000
    H92      H        0.70640    0.18100    0.83300    1.000
    C153     C        0.77990    0.33280    0.73490    1.000
    H93      H        0.79850    0.36900    0.71040    1.000
    C154     C        0.71050    0.28490    0.76310    1.000
    H94      H        0.68180    0.29340    0.75830    1.000
    C155     C        0.79560    0.27610    0.78040    1.000
    H95      H        0.82420    0.27790    0.78650    1.000
    C156     C        0.78490    0.14140    0.86140    1.000
    N22      N        0.82480    0.08890    0.86750    1.000
    C157     C        0.76390    0.08680    0.90330    1.000
    H96      H        0.73580    0.10320    0.91030    1.000
    N23      N        0.64430    0.65620    0.46900    1.000
    C158     C        0.83030    0.01060    0.91130    1.000
    N24      N        0.79200    0.00490    0.93230    1.000
    H97      H        0.78620    0.95620    0.96020    1.000
    C159     C        0.65570    0.49890    0.45100    1.000
    H98      H        0.65140    0.46000    0.41870    1.000
    C160     C        0.56080    0.50680    0.70560    1.000
    H99      H        0.55030    0.60800    0.69310    1.000
    N25      N        0.56690    0.48800    0.75710    1.000
    H100     H        0.56110    0.56980    0.77700    1.000
    Cd6      Cd       0.60837    0.36594    0.93443    1.000
    C161     C        0.67500    0.01020    0.03070    1.000
    C162     C        0.58100    0.76140    0.08440    1.000
    H101     H        0.59270    0.66440    0.09830    1.000
    C163     C        0.59040    0.61610    0.00490    1.000
    C164     C        0.74170    0.83570    0.13200    1.000
    H102     H        0.76640    0.77500    0.13530    1.000
    C165     C        0.57800    0.77080    0.03650    1.000
    C166     C        0.56450    0.91530    0.01360    1.000
    H103     H        0.56300    0.92030    0.97900    1.000
    C167     C        0.55290    0.05360    0.04170    1.000
    N26      N        0.67390    0.91170    0.98820    1.000
    H104     H        0.68340    0.81020    0.98590    1.000
    O31      O        0.56990    0.59160    0.96470    1.000
    C168     C        0.69040    0.96570    0.07850    1.000
    O32      O        0.61970    0.52280    0.01850    1.000
    C169     C        0.55390    0.03960    0.09360    1.000
    H105     H        0.54540    0.13180    0.11260    1.000
    C170     C        0.56700    0.89590    0.11800    1.000
    C171     C        0.56990    0.88160    0.17440    1.000
    C172     C        0.65670    0.15480    0.01710    1.000
    H106     H        0.65290    0.24570    0.03860    1.000
    C173     C        0.53770    0.21350    0.01650    1.000
    O33      O        0.57910    0.92940    0.36040    1.000
    O34      O        0.61270    0.69690    0.34580    1.000
    C174     C        0.59200    0.82110    0.33190    1.000
    O35      O        0.54260    0.22620    0.96850    1.000
    O36      O        0.52120    0.32850    0.04170    1.000
    C175     C        0.58240    0.83690    0.27580    1.000
    C176     C        0.58600    0.73500    0.19540    1.000
    H107     H        0.59150    0.64340    0.17470    1.000
    C177     C        0.59360    0.72030    0.24200    1.000
    H108     H        0.60760    0.62410    0.25300    1.000
    C178     C        0.66850    0.01800    0.12050    1.000
    H109     H        0.64410    0.08090    0.11710    1.000
    C179     C        0.68360    0.97490    0.16880    1.000
    H110     H        0.66870    0.00780    0.19700    1.000
    C180     C        0.72080    0.88250    0.17380    1.000
    C181     C        0.72720    0.87590    0.08370    1.000
    H111     H        0.74230    0.84230    0.05570    1.000
    C182     C        0.73650    0.83660    0.22490    1.000
    C183     C        0.76830    0.71710    0.31660    1.000
    C184     C        0.72490    0.72020    0.30880    1.000
    H112     H        0.70640    0.68100    0.33300    1.000
    C185     C        0.77990    0.83280    0.23490    1.000
    H113     H        0.79850    0.86900    0.21040    1.000
    C186     C        0.71050    0.78490    0.26310    1.000
    H114     H        0.68180    0.79340    0.25830    1.000
    C187     C        0.79560    0.77610    0.28040    1.000
    H115     H        0.82420    0.77790    0.28650    1.000
    C188     C        0.78490    0.64140    0.36140    1.000
    N27      N        0.82480    0.58890    0.36750    1.000
    C189     C        0.76390    0.58680    0.40330    1.000
    H116     H        0.73580    0.60320    0.41030    1.000
    N28      N        0.64430    0.15620    0.96900    1.000
    C190     C        0.83030    0.51060    0.41130    1.000
    N29      N        0.79200    0.50490    0.43230    1.000
    H117     H        0.78620    0.45620    0.46020    1.000
    C191     C        0.65570    0.99890    0.95100    1.000
    H118     H        0.65140    0.96000    0.91870    1.000
    C192     C        0.56080    0.00680    0.20560    1.000
    H119     H        0.55030    0.10800    0.19310    1.000
    N30      N        0.56690    0.98800    0.25710    1.000
    H120     H        0.56110    0.06980    0.27700    1.000
    Cd7      Cd       0.39163    0.13406    0.43443    1.000
    C193     C        0.32500    0.48980    0.53070    1.000
    C194     C        0.41900    0.73860    0.58440    1.000
    H121     H        0.40730    0.83560    0.59830    1.000
    C195     C        0.40960    0.88390    0.50490    1.000
    C196     C        0.25830    0.66430    0.63200    1.000
    H122     H        0.23360    0.72500    0.63530    1.000
    C197     C        0.42200    0.72920    0.53650    1.000
    C198     C        0.43550    0.58470    0.51360    1.000
    H123     H        0.43700    0.57970    0.47900    1.000
    C199     C        0.44710    0.44640    0.54170    1.000
    N31      N        0.32610    0.58830    0.48820    1.000
    H124     H        0.31660    0.68980    0.48590    1.000
    O37      O        0.43010    0.90840    0.46470    1.000
    C200     C        0.30960    0.53430    0.57850    1.000
    O38      O        0.38030    0.97720    0.51850    1.000
    C201     C        0.44610    0.46040    0.59360    1.000
    H125     H        0.45460    0.36820    0.61260    1.000
    C202     C        0.43300    0.60410    0.61800    1.000
    C203     C        0.43010    0.61840    0.67440    1.000
    C204     C        0.34330    0.34520    0.51710    1.000
    H126     H        0.34710    0.25430    0.53860    1.000
    C205     C        0.46230    0.28650    0.51650    1.000
    O39      O        0.42090    0.57060    0.86040    1.000
    O40      O        0.38730    0.80310    0.84580    1.000
    C206     C        0.40800    0.67890    0.83190    1.000
    O41      O        0.45740    0.27380    0.46850    1.000
    O42      O        0.47880    0.17150    0.54170    1.000
    C207     C        0.41760    0.66310    0.77580    1.000
    C208     C        0.41400    0.76500    0.69540    1.000
    H127     H        0.40850    0.85660    0.67470    1.000
    C209     C        0.40640    0.77970    0.74200    1.000
    H128     H        0.39240    0.87590    0.75300    1.000
    C210     C        0.33150    0.48200    0.62050    1.000
    H129     H        0.35590    0.41910    0.61710    1.000
    C211     C        0.31640    0.52510    0.66880    1.000
    H130     H        0.33130    0.49220    0.69700    1.000
    C212     C        0.27920    0.61750    0.67380    1.000
    C213     C        0.27280    0.62410    0.58370    1.000
    H131     H        0.25770    0.65770    0.55570    1.000
    C214     C        0.26350    0.66340    0.72490    1.000
    C215     C        0.23170    0.78290    0.81660    1.000
    C216     C        0.27510    0.77980    0.80880    1.000
    H132     H        0.29360    0.81900    0.83300    1.000
    C217     C        0.22010    0.66720    0.73490    1.000
    H133     H        0.20150    0.63100    0.71040    1.000
    C218     C        0.28950    0.71510    0.76310    1.000
    H134     H        0.31820    0.70660    0.75830    1.000
    C219     C        0.20440    0.72390    0.78040    1.000
    H135     H        0.17580    0.72210    0.78650    1.000
    C220     C        0.21510    0.85860    0.86140    1.000
    N32      N        0.17520    0.91110    0.86750    1.000
    C221     C        0.23610    0.91320    0.90330    1.000
    H136     H        0.26420    0.89680    0.91030    1.000
    N33      N        0.35570    0.34380    0.46900    1.000
    C222     C        0.16970    0.98940    0.91130    1.000
    N34      N        0.20800    0.99510    0.93230    1.000
    H137     H        0.21380    0.04380    0.96020    1.000
    C223     C        0.34430    0.50110    0.45100    1.000
    H138     H        0.34860    0.54000    0.41870    1.000
    C224     C        0.43920    0.49320    0.70560    1.000
    H139     H        0.44970    0.39200    0.69310    1.000
    N35      N        0.43310    0.51200    0.75710    1.000
    H140     H        0.43890    0.43020    0.77700    1.000
    Cd8      Cd       0.39163    0.63406    0.93443    1.000
    C225     C        0.32500    0.98980    0.03070    1.000
    C226     C        0.41900    0.23860    0.08440    1.000
    H141     H        0.40730    0.33560    0.09830    1.000
    C227     C        0.40960    0.38390    0.00490    1.000
    C228     C        0.25830    0.16430    0.13200    1.000
    H142     H        0.23360    0.22500    0.13530    1.000
    C229     C        0.42200    0.22920    0.03650    1.000
    C230     C        0.43550    0.08470    0.01360    1.000
    H143     H        0.43700    0.07970    0.97900    1.000
    C231     C        0.44710    0.94640    0.04170    1.000
    N36      N        0.32610    0.08830    0.98820    1.000
    H144     H        0.31660    0.18980    0.98590    1.000
    O43      O        0.43010    0.40840    0.96470    1.000
    C232     C        0.30960    0.03430    0.07850    1.000
    O44      O        0.38030    0.47720    0.01850    1.000
    C233     C        0.44610    0.96040    0.09360    1.000
    H145     H        0.45460    0.86820    0.11260    1.000
    C234     C        0.43300    0.10410    0.11800    1.000
    C235     C        0.43010    0.11840    0.17440    1.000
    C236     C        0.34330    0.84520    0.01710    1.000
    H146     H        0.34710    0.75430    0.03860    1.000
    C237     C        0.46230    0.78650    0.01650    1.000
    O45      O        0.42090    0.07060    0.36040    1.000
    O46      O        0.38730    0.30310    0.34580    1.000
    C238     C        0.40800    0.17890    0.33190    1.000
    O47      O        0.45740    0.77380    0.96850    1.000
    O48      O        0.47880    0.67150    0.04170    1.000
    C239     C        0.41760    0.16310    0.27580    1.000
    C240     C        0.41400    0.26500    0.19540    1.000
    H147     H        0.40850    0.35660    0.17470    1.000
    C241     C        0.40640    0.27970    0.24200    1.000
    H148     H        0.39240    0.37590    0.25300    1.000
    C242     C        0.33150    0.98200    0.12050    1.000
    H149     H        0.35590    0.91910    0.11710    1.000
    C243     C        0.31640    0.02510    0.16880    1.000
    H150     H        0.33130    0.99220    0.19700    1.000
    C244     C        0.27920    0.11750    0.17380    1.000
    C245     C        0.27280    0.12410    0.08370    1.000
    H151     H        0.25770    0.15770    0.05570    1.000
    C246     C        0.26350    0.16340    0.22490    1.000
    C247     C        0.23170    0.28290    0.31660    1.000
    C248     C        0.27510    0.27980    0.30880    1.000
    H152     H        0.29360    0.31900    0.33300    1.000
    C249     C        0.22010    0.16720    0.23490    1.000
    H153     H        0.20150    0.13100    0.21040    1.000
    C250     C        0.28950    0.21510    0.26310    1.000
    H154     H        0.31820    0.20660    0.25830    1.000
    C251     C        0.20440    0.22390    0.28040    1.000
    H155     H        0.17580    0.22210    0.28650    1.000
    C252     C        0.21510    0.35860    0.36140    1.000
    N37      N        0.17520    0.41110    0.36750    1.000
    C253     C        0.23610    0.41320    0.40330    1.000
    H156     H        0.26420    0.39680    0.41030    1.000
    N38      N        0.35570    0.84380    0.96900    1.000
    C254     C        0.16970    0.48940    0.41130    1.000
    N39      N        0.20800    0.49510    0.43230    1.000
    H157     H        0.21380    0.54380    0.46020    1.000
    C255     C        0.34430    0.00110    0.95100    1.000
    H158     H        0.34860    0.04000    0.91870    1.000
    C256     C        0.43920    0.99320    0.20560    1.000
    H159     H        0.44970    0.89200    0.19310    1.000
    N40      N        0.43310    0.01200    0.25710    1.000
    H160     H        0.43890    0.93020    0.27700    1.000
    Cd9      Cd       0.00000    0.50000    0.47714    1.000
    Cd10     Cd       0.00000    0.00000    0.97714    1.000
    Cd11     Cd       0.50000    0.00000    0.47714    1.000
    Cd12     Cd       0.50000    0.50000    0.97714    1.000
