# CIF file generated by openbabel 3.1.0, see https://openbabel.org
data_I
_chemical_name_common 'image0'
_cell_length_a 12.6947
_cell_length_b 12.8242
_cell_length_c 14.7971
_cell_angle_alpha 85.11
_cell_angle_beta 65.988
_cell_angle_gamma 89.663
_space_group_name_H-M_alt 'P 1'
_space_group_name_Hall 'P 1'
loop_
    _symmetry_equiv_pos_as_xyz
    x,y,z
loop_
    _atom_site_label
    _atom_site_type_symbol
    _atom_site_fract_x
    _atom_site_fract_y
    _atom_site_fract_z
    _atom_site_occupancy
    Zn1      Zn       0.28282    0.04782    0.44211    1.000
    Zn2      Zn       0.84472    0.40285    0.86813    1.000
    O1       O        0.81880    0.46260    0.05640    1.000
    O2       O        0.75790    0.32990    0.99970    1.000
    O3       O        0.63980    0.23770    0.18150    1.000
    O4       O        0.49460    0.06580    0.24950    1.000
    O5       O        0.44390    0.10140    0.40730    1.000
    O6       O        0.65930    0.99880    0.38260    1.000
    O7       O        0.78570    0.90360    0.42250    1.000
    O8       O        0.84420    0.80030    0.25900    1.000
    O9       O        0.95090    0.64240    0.05840    1.000
    O10      O        0.00320    0.65900    0.18500    1.000
    O11      O        0.77310    0.34920    0.78540    1.000
    O12      O        0.64160    0.47080    0.84030    1.000
    O13      O        0.66700    0.27310    0.67970    1.000
    O14      O        0.70150    0.10190    0.58050    1.000
    O15      O        0.54180    0.13240    0.55110    1.000
    O16      O        0.97870    0.41930    0.13670    1.000
    O17      O        0.13800    0.44640    0.16350    1.000
    O18      O        0.11070    0.26630    0.26940    1.000
    O19      O        0.24640    0.16390    0.34720    1.000
    O20      O        0.13490    0.03970    0.41110    1.000
    C1       C        0.76460    0.37740    0.06850    1.000
    C2       C        0.69950    0.33020    0.17100    1.000
    C3       C        0.68090    0.36050    0.26130    1.000
    H1       H        0.71210    0.42170    0.27440    1.000
    C4       C        0.60590    0.28350    0.33280    1.000
    H2       H        0.57720    0.28270    0.40300    1.000
    C5       C        0.58350    0.21170    0.28080    1.000
    C6       C        0.50470    0.11780    0.31080    1.000
    C7       C        0.73320    0.92950    0.36770    1.000
    C8       C        0.76130    0.87430    0.27690    1.000
    C9       C        0.71800    0.87900    0.20760    1.000
    H3       H        0.65910    0.92310    0.20430    1.000
    C10      C        0.77810    0.80450    0.14020    1.000
    H4       H        0.76770    0.78970    0.08240    1.000
    C11      C        0.85310    0.75860    0.17430    1.000
    C12      C        0.94250    0.67940    0.13600    1.000
    C13      C        0.68300    0.39750    0.78990    1.000
    C14      C        0.62400    0.35970    0.73040    1.000
    C15      C        0.52830    0.39160    0.71840    1.000
    H5       H        0.48310    0.44960    0.74540    1.000
    C16      C        0.50900    0.32060    0.65700    1.000
    H6       H        0.44840    0.32250    0.63490    1.000
    C17      C        0.59370    0.25030    0.63630    1.000
    C18      C        0.61430    0.15390    0.58440    1.000
    C19      C        0.04860    0.39460    0.17350    1.000
    C20      C        0.02570    0.29480    0.23800    1.000
    C21      C        0.93670    0.22500    0.27710    1.000
    H7       H        0.86790    0.22660    0.26630    1.000
    C22      C        0.96540    0.14820    0.33790    1.000
    H8       H        0.91920    0.08920    0.37650    1.000
    C23      C        0.07170    0.17620    0.32970    1.000
    C24      C        0.15120    0.12910    0.37120    1.000
    O21      O        0.09650    0.06010    0.44980    1.000
    Zn3      Zn       0.71718    0.95218    0.55789    1.000
    Zn4      Zn       0.15528    0.59715    0.13187    1.000
    O22      O        0.18120    0.53740    0.94360    1.000
    O23      O        0.24210    0.67010    0.00030    1.000
    O24      O        0.36020    0.76230    0.81850    1.000
    O25      O        0.50540    0.93420    0.75050    1.000
    O26      O        0.55610    0.89860    0.59270    1.000
    O27      O        0.34070    0.00120    0.61740    1.000
    O28      O        0.21430    0.09640    0.57750    1.000
    O29      O        0.15580    0.19970    0.74100    1.000
    O30      O        0.04910    0.35760    0.94160    1.000
    O31      O        0.99680    0.34100    0.81500    1.000
    O32      O        0.22690    0.65080    0.21460    1.000
    O33      O        0.35840    0.52920    0.15970    1.000
    O34      O        0.33300    0.72690    0.32030    1.000
    O35      O        0.29850    0.89810    0.41950    1.000
    O36      O        0.45820    0.86760    0.44890    1.000
    O37      O        0.02130    0.58070    0.86330    1.000
    O38      O        0.86200    0.55360    0.83650    1.000
    O39      O        0.88930    0.73370    0.73060    1.000
    O40      O        0.75360    0.83610    0.65280    1.000
    O41      O        0.86510    0.96030    0.58890    1.000
    C25      C        0.23540    0.62260    0.93150    1.000
    C26      C        0.30050    0.66980    0.82900    1.000
    C27      C        0.31910    0.63950    0.73870    1.000
    H9       H        0.28790    0.57830    0.72560    1.000
    C28      C        0.39410    0.71650    0.66720    1.000
    H10      H        0.42280    0.71730    0.59700    1.000
    C29      C        0.41650    0.78830    0.71920    1.000
    C30      C        0.49530    0.88220    0.68920    1.000
    C31      C        0.26680    0.07050    0.63230    1.000
    C32      C        0.23870    0.12570    0.72310    1.000
    C33      C        0.28200    0.12100    0.79240    1.000
    H11      H        0.34090    0.07690    0.79570    1.000
    C34      C        0.22190    0.19550    0.85980    1.000
    H12      H        0.23230    0.21030    0.91760    1.000
    C35      C        0.14690    0.24140    0.82570    1.000
    C36      C        0.05750    0.32060    0.86400    1.000
    C37      C        0.31700    0.60250    0.21010    1.000
    C38      C        0.37600    0.64030    0.26960    1.000
    C39      C        0.47170    0.60840    0.28160    1.000
    H13      H        0.51690    0.55040    0.25460    1.000
    C40      C        0.49100    0.67940    0.34300    1.000
    H14      H        0.55160    0.67750    0.36510    1.000
    C41      C        0.40630    0.74970    0.36370    1.000
    C42      C        0.38570    0.84610    0.41560    1.000
    C43      C        0.95140    0.60540    0.82650    1.000
    C44      C        0.97430    0.70520    0.76200    1.000
    C45      C        0.06330    0.77500    0.72290    1.000
    H15      H        0.13210    0.77340    0.73370    1.000
    C46      C        0.03460    0.85180    0.66210    1.000
    H16      H        0.08080    0.91080    0.62350    1.000
    C47      C        0.92830    0.82380    0.67030    1.000
    C48      C        0.84880    0.87090    0.62880    1.000
    O42      O        0.90350    0.93990    0.55020    1.000
    Zn5      Zn       0.50000    0.00000    0.50000    1.000
    Zn6      Zn       0.00000    0.50000    0.00000    1.000
