# CIF file generated by openbabel 3.1.0, see https://openbabel.org
data_I
_chemical_name_common 'YUCNEQ_clean'
_cell_length_a 7.02
_cell_length_b 8.227
_cell_length_c 8.5292
_cell_angle_alpha 113.308
_cell_angle_beta 114.301
_cell_angle_gamma 90
_space_group_name_H-M_alt 'P 1'
_space_group_name_Hall 'P 1'
loop_
    _symmetry_equiv_pos_as_xyz
    x,y,z
loop_
    _atom_site_label
    _atom_site_type_symbol
    _atom_site_fract_x
    _atom_site_fract_y
    _atom_site_fract_z
    _atom_site_occupancy
    Co1      Co       0.00000    0.50000    0.50000    1.000
    Co2      Co       0.50000    0.00000    0.50000    1.000
    H1       H        0.40130    0.94100    0.08460    1.000
    H2       H        0.31670    0.55900    0.91540    1.000
    H3       H        0.59870    0.05900    0.91540    1.000
    H4       H        0.68330    0.44100    0.08460    1.000
    C1       C        0.65734    0.15133    0.27230    1.000
    C2       C        0.49966    0.00982    0.08132    1.000
    C3       C        0.38504    0.34867    0.72770    1.000
    C4       C        0.41834    0.49018    0.91868    1.000
    C5       C        0.34266    0.84867    0.72770    1.000
    C6       C        0.50034    0.99018    0.91868    1.000
    C7       C        0.61496    0.65133    0.27230    1.000
    C8       C        0.58166    0.50982    0.08132    1.000
    O1       O        0.79344    0.25640    0.27874    1.000
    O2       O        0.64420    0.15954    0.41978    1.000
    O3       O        0.51470    0.24360    0.72126    1.000
    O4       O        0.22442    0.34046    0.58022    1.000
    O5       O        0.20656    0.74360    0.72126    1.000
    O6       O        0.35580    0.84046    0.58022    1.000
    O7       O        0.48530    0.75640    0.27874    1.000
    O8       O        0.77558    0.65954    0.41978    1.000
