# CIF file generated by openbabel 3.1.0, see https://openbabel.org
data_I
_chemical_name_common 'NAJMIV_charged'
_cell_length_a 14.3905
_cell_length_b 22.2074
_cell_length_c 22.2732
_cell_angle_alpha 83.9921
_cell_angle_beta 71.1528
_cell_angle_gamma 71.095
_space_group_name_H-M_alt 'P 1'
_space_group_name_Hall 'P 1'
loop_
    _symmetry_equiv_pos_as_xyz
    x,y,z
loop_
    _atom_site_label
    _atom_site_type_symbol
    _atom_site_fract_x
    _atom_site_fract_y
    _atom_site_fract_z
    _atom_site_occupancy
    Cu1      Cu       0.57844    0.25235    0.82005    1.000
    Cu2      Cu       0.60151    0.74765    0.82005    1.000
    Cu3      Cu       0.08079    0.24765    0.32005    1.000
    Cu4      Cu       0.59916    0.75235    0.32005    1.000
    H1       H        0.56900    0.16960    0.93400    1.000
    H2       H        0.46920    0.16780    0.03920    1.000
    H3       H        0.28420    0.34380    0.01320    1.000
    H4       H        0.38750    0.33820    0.90760    1.000
    H5       H        0.41440    0.20520    0.14280    1.000
    H6       H        0.30680    0.20600    0.24620    1.000
    H7       H        0.06150    0.30120    0.19500    1.000
    H8       H        0.16190    0.30720    0.09080    1.000
    H9       H        0.73930    0.12480    0.78640    1.000
    H10      H        0.74730    0.01800    0.78540    1.000
    H11      H        0.43580    0.07200    0.83800    1.000
    H12      H        0.43470    0.17680    0.84040    1.000
    H13      H        0.60560    0.33400    0.90740    1.000
    H14      H        0.60550    0.43740    0.91560    1.000
    H15      H        0.55060    0.47520    0.74540    1.000
    H16      H        0.53830    0.37420    0.74720    1.000
    H17      H        0.49700    0.83040    0.93400    1.000
    H18      H        0.49160    0.83220    0.03920    1.000
    H19      H        0.70260    0.65620    0.01320    1.000
    H20      H        0.70490    0.66180    0.90760    1.000
    H21      H        0.44280    0.79480    0.14280    1.000
    H22      H        0.44700    0.79400    0.24620    1.000
    H23      H        0.74350    0.69880    0.19500    1.000
    H24      H        0.74730    0.69280    0.09080    1.000
    H25      H        0.47430    0.87520    0.78640    1.000
    H26      H        0.46730    0.98200    0.78540    1.000
    H27      H        0.72620    0.92800    0.83800    1.000
    H28      H        0.72490    0.82320    0.84040    1.000
    H29      H        0.48700    0.66600    0.90740    1.000
    H30      H        0.47890    0.56260    0.91560    1.000
    H31      H        0.70400    0.52480    0.74540    1.000
    H32      H        0.71450    0.62580    0.74720    1.000
    H33      H        0.98860    0.33040    0.43400    1.000
    H34      H        0.88700    0.33220    0.53920    1.000
    H35      H        0.87800    0.15620    0.51320    1.000
    H36      H        0.97570    0.16180    0.40760    1.000
    H37      H        0.86960    0.29480    0.64280    1.000
    H38      H        0.76280    0.29400    0.74620    1.000
    H39      H        0.61270    0.19880    0.69500    1.000
    H40      H        0.71910    0.19280    0.59080    1.000
    H41      H        0.11410    0.37520    0.28640    1.000
    H42      H        0.01530    0.48200    0.28540    1.000
    H43      H        0.75780    0.42800    0.33800    1.000
    H44      H        0.86150    0.32320    0.34040    1.000
    H45      H        0.18960    0.16600    0.40740    1.000
    H46      H        0.29290    0.06260    0.41560    1.000
    H47      H        0.27580    0.02480    0.24540    1.000
    H48      H        0.16250    0.12580    0.24720    1.000
    H49      H        0.57740    0.66960    0.43400    1.000
    H50      H        0.57380    0.66780    0.53920    1.000
    H51      H        0.60880    0.84380    0.51320    1.000
    H52      H        0.61670    0.83820    0.40760    1.000
    H53      H        0.48760    0.70520    0.64280    1.000
    H54      H        0.49100    0.70600    0.74620    1.000
    H55      H        0.69230    0.80120    0.69500    1.000
    H56      H        0.69010    0.80720    0.59080    1.000
    H57      H        0.59950    0.62480    0.28640    1.000
    H58      H        0.69930    0.51800    0.28540    1.000
    H59      H        0.90420    0.57200    0.33800    1.000
    H60      H        0.79810    0.67680    0.34040    1.000
    H61      H        0.40300    0.83400    0.40740    1.000
    H62      H        0.29150    0.93740    0.41560    1.000
    H63      H        0.47880    0.97520    0.24540    1.000
    H64      H        0.59030    0.87420    0.24720    1.000
    C1       C        0.50971    0.20512    0.95046    1.000
    C2       C        0.45122    0.20384    0.01332    1.000
    C3       C        0.36652    0.25574    0.03762    1.000
    C4       C        0.34193    0.30730    0.99784    1.000
    C5       C        0.40448    0.30354    0.93510    1.000
    C6       C        0.29931    0.25622    0.10516    1.000
    C7       C        0.34220    0.22566    0.15254    1.000
    C8       C        0.27724    0.22576    0.21396    1.000
    C9       C        0.13406    0.28182    0.18426    1.000
    C10      C        0.19329    0.28526    0.12176    1.000
    C11      C        0.67708    0.11402    0.79722    1.000
    C12      C        0.68221    0.05020    0.79598    1.000
    C13      C        0.59332    0.03426    0.81010    1.000
    C14      C        0.49871    0.08186    0.82732    1.000
    C15      C        0.49918    0.14402    0.82842    1.000
    C16      C        0.59252    0.36358    0.87478    1.000
    C17      C        0.59467    0.42490    0.87956    1.000
    C18      C        0.58067    0.46762    0.83084    1.000
    C19      C        0.56048    0.44736    0.77988    1.000
    C20      C        0.55527    0.38684    0.78082    1.000
    C21      C        0.53983    0.79488    0.95046    1.000
    C22      C        0.53546    0.79616    0.01332    1.000
    C23      C        0.59586    0.74426    0.03762    1.000
    C24      C        0.66023    0.69270    0.99784    1.000
    C25      C        0.66042    0.69646    0.93510    1.000
    C26      C        0.59553    0.74378    0.10516    1.000
    C27      C        0.50526    0.77434    0.15254    1.000
    C28      C        0.50880    0.77424    0.21396    1.000
    C29      C        0.68168    0.71818    0.18426    1.000
    C30      C        0.68495    0.71474    0.12176    1.000
    C31      C        0.52570    0.88598    0.79722    1.000
    C32      C        0.52181    0.94980    0.79598    1.000
    C33      C        0.59658    0.96574    0.81010    1.000
    C34      C        0.67397    0.91814    0.82732    1.000
    C35      C        0.67240    0.85598    0.82842    1.000
    C36      C        0.53270    0.63642    0.87478    1.000
    C37      C        0.52577    0.57510    0.87956    1.000
    C38      C        0.58849    0.53238    0.83084    1.000
    C39      C        0.65964    0.55264    0.77988    1.000
    C40      C        0.66391    0.61316    0.78082    1.000
    C41      C        0.96483    0.29488    0.45046    1.000
    C42      C        0.90506    0.29616    0.51332    1.000
    C43      C        0.87226    0.24426    0.53762    1.000
    C44      C        0.89923    0.19270    0.49784    1.000
    C45      C        0.95802    0.19646    0.43510    1.000
    C46      C        0.80553    0.24378    0.60516    1.000
    C47      C        0.81786    0.27434    0.65254    1.000
    C48      C        0.75300    0.27424    0.71396    1.000
    C49      C        0.66588    0.21818    0.68426    1.000
    C50      C        0.72855    0.21474    0.62176    1.000
    C51      C        0.04110    0.38598    0.29722    1.000
    C52      C        0.98241    0.44980    0.29598    1.000
    C53      C        0.87758    0.46574    0.31010    1.000
    C54      C        0.83057    0.41814    0.32732    1.000
    C55      C        0.89320    0.35598    0.32842    1.000
    C56      C        0.20610    0.13642    0.37478    1.000
    C57      C        0.26957    0.07510    0.37956    1.000
    C58      C        0.29829    0.03238    0.33084    1.000
    C59      C        0.25784    0.05264    0.27988    1.000
    C60      C        0.19211    0.11316    0.28082    1.000
    C61      C        0.58471    0.70512    0.45046    1.000
    C62      C        0.58162    0.70384    0.51332    1.000
    C63      C        0.59012    0.75574    0.53762    1.000
    C64      C        0.60293    0.80730    0.49784    1.000
    C65      C        0.60688    0.80354    0.43510    1.000
    C66      C        0.58931    0.75622    0.60516    1.000
    C67      C        0.52960    0.72566    0.65254    1.000
    C68      C        0.53304    0.72576    0.71396    1.000
    C69      C        0.64986    0.78182    0.68426    1.000
    C70      C        0.64969    0.78526    0.62176    1.000
    C71      C        0.66168    0.61402    0.29722    1.000
    C72      C        0.72161    0.55020    0.29598    1.000
    C73      C        0.81232    0.53426    0.31010    1.000
    C74      C        0.84211    0.58186    0.32732    1.000
    C75      C        0.77838    0.64402    0.32842    1.000
    C76      C        0.41912    0.86358    0.37478    1.000
    C77      C        0.35087    0.92490    0.37956    1.000
    C78      C        0.37087    0.96762    0.33084    1.000
    C79      C        0.46228    0.94736    0.27988    1.000
    C80      C        0.52707    0.88684    0.28082    1.000
    N1       N        0.48656    0.25428    0.91160    1.000
    N2       N        0.58574    0.16046    0.81346    1.000
    N3       N        0.57291    0.34408    0.82670    1.000
    N4       N        0.17363    0.25272    0.23002    1.000
    N5       N        0.60184    0.74572    0.91160    1.000
    N6       N        0.60080    0.83954    0.81346    1.000
    N7       N        0.60039    0.65592    0.82670    1.000
    N8       N        0.59635    0.74728    0.23002    1.000
    N9       N        0.99084    0.24572    0.41160    1.000
    N10      N        0.99620    0.33954    0.31346    1.000
    N11      N        0.16699    0.15592    0.32670    1.000
    N12      N        0.67635    0.24728    0.73002    1.000
    N13      N        0.59756    0.75428    0.41160    1.000
    N14      N        0.69034    0.66046    0.31346    1.000
    N15      N        0.50631    0.84408    0.32670    1.000
    N16      N        0.59363    0.75272    0.73002    1.000
    Cu5      Cu       0.50488    0.24684    0.46886    1.000
    Cu6      Cu       0.02626    0.75316    0.46886    1.000
    Cu7      Cu       0.00172    0.25316    0.96886    1.000
    Cu8      Cu       0.02942    0.74684    0.96886    1.000
    H65      H        0.60080    0.16480    0.35420    1.000
    H66      H        0.70150    0.16520    0.24920    1.000
    H67      H        0.71230    0.33940    0.27840    1.000
    H68      H        0.61130    0.33440    0.38280    1.000
    H69      H        0.71630    0.20740    0.14640    1.000
    H70      H        0.82050    0.21020    0.04260    1.000
    H71      H        0.97230    0.30260    0.09660    1.000
    H72      H        0.87170    0.30320    0.20020    1.000
    H73      H        0.48410    0.11760    0.50520    1.000
    H74      H        0.58630    0.01400    0.51280    1.000
    H75      H        0.83750    0.07640    0.45600    1.000
    H76      H        0.72710    0.17860    0.45100    1.000
    H77      H        0.40130    0.33340    0.38080    1.000
    H78      H        0.30280    0.43900    0.37480    1.000
    H79      H        0.32720    0.47040    0.54400    1.000
    H80      H        0.42660    0.36540    0.54540    1.000
    H81      H        0.04500    0.83520    0.35420    1.000
    H82      H        0.04930    0.83480    0.24920    1.000
    H83      H        0.00930    0.66060    0.27840    1.000
    H84      H        0.00590    0.66560    0.38280    1.000
    H85      H        0.13730    0.79260    0.14640    1.000
    H86      H        0.13690    0.78980    0.04260    1.000
    H87      H        0.93110    0.69740    0.09660    1.000
    H88      H        0.92810    0.69680    0.20020    1.000
    H89      H        0.01070    0.88240    0.50520    1.000
    H90      H        0.90090    0.98600    0.51280    1.000
    H91      H        0.70650    0.92360    0.45600    1.000
    H92      H        0.82190    0.82140    0.45100    1.000
    H93      H        0.21790    0.66660    0.38080    1.000
    H94      H        0.32240    0.56100    0.37480    1.000
    H95      H        0.12880    0.52960    0.54400    1.000
    H96      H        0.02800    0.63460    0.54540    1.000
    H97      H        0.01560    0.33520    0.85420    1.000
    H98      H        0.11670    0.33480    0.74920    1.000
    H99      H        0.30170    0.16060    0.77840    1.000
    H100     H        0.19570    0.16560    0.88280    1.000
    H101     H        0.17370    0.29260    0.64640    1.000
    H102     H        0.28070    0.28980    0.54260    1.000
    H103     H        0.52490    0.19740    0.59660    1.000
    H104     H        0.42490    0.19680    0.70020    1.000
    H105     H        0.85170    0.38240    0.00520    1.000
    H106     H        0.85030    0.48600    0.01280    1.000
    H107     H        0.16390    0.42360    0.95600    1.000
    H108     H        0.15570    0.32140    0.95100    1.000
    H109     H        0.98470    0.16660    0.88080    1.000
    H110     H        0.99180    0.06100    0.87480    1.000
    H111     H        0.04760    0.02960    0.04400    1.000
    H112     H        0.04200    0.13460    0.04540    1.000
    H113     H        0.13020    0.66480    0.85420    1.000
    H114     H        0.13410    0.66520    0.74920    1.000
    H115     H        0.91990    0.83940    0.77840    1.000
    H116     H        0.92150    0.83440    0.88280    1.000
    H117     H        0.17990    0.70740    0.64640    1.000
    H118     H        0.17670    0.71020    0.54260    1.000
    H119     H        0.87850    0.80260    0.59660    1.000
    H120     H        0.87490    0.80320    0.70020    1.000
    H121     H        0.14310    0.61760    0.00520    1.000
    H122     H        0.13690    0.51400    0.01280    1.000
    H123     H        0.88010    0.57640    0.95600    1.000
    H124     H        0.89330    0.67860    0.95100    1.000
    H125     H        0.13450    0.83340    0.88080    1.000
    H126     H        0.13340    0.93900    0.87480    1.000
    H127     H        0.90840    0.97040    0.04400    1.000
    H128     H        0.91260    0.86540    0.04540    1.000
    C81      C        0.62397    0.20056    0.33870    1.000
    C82      C        0.68423    0.20060    0.27574    1.000
    C83      C        0.71931    0.25214    0.25164    1.000
    C84      C        0.69064    0.30288    0.29284    1.000
    C85      C        0.63023    0.29958    0.35516    1.000
    C86      C        0.78271    0.25380    0.18578    1.000
    C87      C        0.76898    0.22700    0.13724    1.000
    C88      C        0.83160    0.22866    0.07514    1.000
    C89      C        0.91972    0.28278    0.10698    1.000
    C90      C        0.86037    0.28312    0.16874    1.000
    C91      C        0.55661    0.10892    0.49506    1.000
    C92      C        0.61729    0.04684    0.49898    1.000
    C93      C        0.72465    0.03264    0.48246    1.000
    C94      C        0.76541    0.08352    0.46566    1.000
    C95      C        0.69898    0.14440    0.46324    1.000
    C96      C        0.38635    0.36198    0.41412    1.000
    C97      C        0.32678    0.42456    0.41048    1.000
    C98      C        0.30249    0.46650    0.46052    1.000
    C99      C        0.34145    0.44310    0.50980    1.000
    C100     C        0.40085    0.38058    0.51052    1.000
    C101     C        0.03733    0.79944    0.33870    1.000
    C102     C        0.04003    0.79940    0.27574    1.000
    C103     C        0.02905    0.74786    0.25164    1.000
    C104     C        0.01652    0.69712    0.29284    1.000
    C105     C        0.01461    0.70042    0.35516    1.000
    C106     C        0.03151    0.74620    0.18578    1.000
    C107     C        0.09378    0.77300    0.13724    1.000
    C108     C        0.09326    0.77134    0.07514    1.000
    C109     C        0.97330    0.71722    0.10698    1.000
    C110     C        0.97089    0.71688    0.16874    1.000
    C111     C        0.94833    0.89108    0.49506    1.000
    C112     C        0.88373    0.95316    0.49898    1.000
    C113     C        0.79289    0.96736    0.48246    1.000
    C114     C        0.76893    0.91648    0.46566    1.000
    C115     C        0.83778    0.85560    0.46324    1.000
    C116     C        0.19953    0.63802    0.41412    1.000
    C117     C        0.26274    0.57544    0.41048    1.000
    C118     C        0.23699    0.53350    0.46052    1.000
    C119     C        0.14875    0.55690    0.50980    1.000
    C120     C        0.08863    0.61942    0.51052    1.000
    C121     C        0.07453    0.29944    0.83870    1.000
    C122     C        0.13483    0.29940    0.77574    1.000
    C123     C        0.22145    0.24786    0.75164    1.000
    C124     C        0.24352    0.19712    0.79284    1.000
    C125     C        0.17981    0.20042    0.85516    1.000
    C126     C        0.28651    0.24620    0.68578    1.000
    C127     C        0.24598    0.27300    0.63724    1.000
    C128     C        0.31026    0.27134    0.57514    1.000
    C129     C        0.45250    0.21722    0.60698    1.000
    C130     C        0.39349    0.21688    0.66874    1.000
    C131     C        0.91553    0.39108    0.99506    1.000
    C132     C        0.91413    0.45316    0.99898    1.000
    C133     C        0.00729    0.46736    0.98246    1.000
    C134     C        0.09893    0.41648    0.96566    1.000
    C135     C        0.09338    0.35560    0.96324    1.000
    C136     C        0.99833    0.13802    0.91412    1.000
    C137     C        0.00134    0.07544    0.91048    1.000
    C138     C        0.01899    0.03350    0.96052    1.000
    C139     C        0.03455    0.05690    0.00980    1.000
    C140     C        0.03143    0.11942    0.01052    1.000
    C141     C        0.08677    0.70056    0.83870    1.000
    C142     C        0.08943    0.70060    0.77574    1.000
    C143     C        0.02691    0.75214    0.75164    1.000
    C144     C        0.96364    0.80288    0.79284    1.000
    C145     C        0.96503    0.79958    0.85516    1.000
    C146     C        0.02771    0.75380    0.68578    1.000
    C147     C        0.11678    0.72700    0.63724    1.000
    C148     C        0.11460    0.72866    0.57514    1.000
    C149     C        0.94052    0.78278    0.60698    1.000
    C150     C        0.93777    0.78312    0.66874    1.000
    C151     C        0.08941    0.60892    0.99506    1.000
    C152     C        0.08689    0.54684    0.99898    1.000
    C153     C        0.01025    0.53264    0.98246    1.000
    C154     C        0.93541    0.58352    0.96566    1.000
    C155     C        0.94338    0.64440    0.96324    1.000
    C156     C        0.08755    0.86198    0.91412    1.000
    C157     C        0.08818    0.92456    0.91048    1.000
    C158     C        0.02049    0.96650    0.96052    1.000
    C159     C        0.95565    0.94310    0.00980    1.000
    C160     C        0.95805    0.88058    0.01052    1.000
    N17      N        0.59716    0.24878    0.37810    1.000
    N18      N        0.59648    0.15688    0.47756    1.000
    N19      N        0.42339    0.34030    0.46252    1.000
    N20      N        0.90718    0.25554    0.05990    1.000
    N21      N        0.64672    0.33406    0.50550    1.000
    N22      N        0.02474    0.75122    0.37810    1.000
    N23      N        0.92596    0.84312    0.47756    1.000
    N24      N        0.11409    0.65970    0.46252    1.000
    N25      N        0.03292    0.74446    0.05990    1.000
    N26      N        0.84778    0.66594    0.50550    1.000
    N27      N        0.09594    0.25122    0.87810    1.000
    N28      N        0.00336    0.34312    0.97756    1.000
    N29      N        0.01369    0.15970    0.96252    1.000
    N30      N        0.41272    0.24446    0.55990    1.000
    N31      N        0.23078    0.16594    0.00550    1.000
    N32      N        0.02596    0.74878    0.87810    1.000
    N33      N        0.01908    0.65688    0.97756    1.000
    N34      N        0.02379    0.84030    0.96252    1.000
    N35      N        0.02738    0.75554    0.55990    1.000
    N36      N        0.76372    0.83406    0.00550    1.000
    O1       O        0.62115    0.28588    0.51202    1.000
    O2       O        0.68890    0.36260    0.45920    1.000
    O3       O        0.62110    0.36520    0.55680    1.000
    O4       O        0.86683    0.71412    0.51202    1.000
    O5       O        0.85190    0.63740    0.45920    1.000
    O6       O        0.82210    0.63480    0.55680    1.000
    O7       O        0.15703    0.21412    0.01202    1.000
    O8       O        0.30150    0.13740    0.95920    1.000
    O9       O        0.23630    0.13480    0.05680    1.000
    O10      O        0.83095    0.78588    0.01202    1.000
    O11      O        0.73930    0.86260    0.95920    1.000
    O12      O        0.70690    0.86520    0.05680    1.000
    N37      N        0.45256    0.24500    0.26448    1.000
    O13      O        0.39942    0.29540    0.28436    1.000
    O14      O        0.43515    0.20440    0.29810    1.000
    O15      O        0.51707    0.23660    0.20986    1.000
    N38      N        0.06383    0.99654    0.38400    1.000
    O16      O        0.03149    0.04282    0.41800    1.000
    O17      O        0.12352    0.94516    0.39100    1.000
    O18      O        0.03730    0.00000    0.33520    1.000
    N39      N        0.78070    0.94300    0.66220    1.000
    O19      O        0.74430    0.90040    0.66880    1.000
    O20      O        0.75550    0.99720    0.64200    1.000
    O21      O        0.85370    0.93040    0.68600    1.000
    N40      N        0.80540    0.00280    0.90760    1.000
    O22      O        0.85770    0.96020    0.86860    1.000
    O23      O        0.82180    0.05380    0.89360    1.000
    O24      O        0.74600    0.99360    0.95840    1.000
    N41      N        0.64570    0.24400    0.02740    1.000
    O25      O        0.69800    0.19820    0.99580    1.000
    O26      O        0.64920    0.29240    0.00160    1.000
    O27      O        0.59100    0.23800    0.08240    1.000
    N42      N        0.28296    0.75500    0.26448    1.000
    O28      O        0.31622    0.70460    0.28436    1.000
    O29      O        0.26675    0.79560    0.29810    1.000
    O30      O        0.27307    0.76340    0.20986    1.000
    N43      N        0.55217    0.00346    0.38400    1.000
    O31      O        0.55051    0.95718    0.41800    1.000
    O32      O        0.48548    0.05484    0.39100    1.000
    O33      O        0.62750    0.00000    0.33520    1.000
    N44      N        0.55710    0.05700    0.66220    1.000
    O34      O        0.58690    0.09960    0.66880    1.000
    O35      O        0.60250    0.00280    0.64200    1.000
    O36      O        0.46030    0.06960    0.68600    1.000
    N45      N        0.28700    0.99720    0.90760    1.000
    O37      O        0.27370    0.03980    0.86860    1.000
    O38      O        0.28460    0.94620    0.89360    1.000
    O39      O        0.29560    0.00640    0.95840    1.000
    N46      N        0.32690    0.75600    0.02740    1.000
    O40      O        0.30620    0.80180    0.99580    1.000
    O41      O        0.34920    0.70760    0.00160    1.000
    O42      O        0.32660    0.76200    0.08240    1.000
    N47      N        0.94756    0.25500    0.76448    1.000
    O43      O        0.94482    0.20460    0.78436    1.000
    O44      O        0.88955    0.29560    0.79810    1.000
    O45      O        0.00367    0.26340    0.70986    1.000
    N48      N        0.31037    0.50346    0.88400    1.000
    O46      O        0.32431    0.45718    0.91800    1.000
    O47      O        0.31868    0.55484    0.89100    1.000
    O48      O        0.28730    0.50000    0.83520    1.000
    N49      N        0.97370    0.55700    0.16220    1.000
    O49      O        0.89470    0.59960    0.16880    1.000
    O50      O        0.00270    0.50280    0.14200    1.000
    O51      O        0.03410    0.56960    0.18600    1.000
    N50      N        0.05820    0.49720    0.40760    1.000
    O52      O        0.06790    0.53980    0.36860    1.000
    O53      O        0.12560    0.44620    0.39360    1.000
    O54      O        0.98960    0.50640    0.45840    1.000
    N51      N        0.13970    0.25600    0.52740    1.000
    O55      O        0.14620    0.30180    0.49580    1.000
    O56      O        0.19160    0.20760    0.50160    1.000
    O57      O        0.07900    0.26200    0.58240    1.000
    N52      N        0.28796    0.74500    0.76448    1.000
    O58      O        0.27082    0.79540    0.78436    1.000
    O59      O        0.31235    0.70440    0.79810    1.000
    O60      O        0.28647    0.73660    0.70986    1.000
    N53      N        0.80563    0.49654    0.88400    1.000
    O61      O        0.75769    0.54282    0.91800    1.000
    O62      O        0.79032    0.44516    0.89100    1.000
    O63      O        0.87750    0.50000    0.83520    1.000
    N54      N        0.86410    0.44300    0.16220    1.000
    O64      O        0.93650    0.40040    0.16880    1.000
    O65      O        0.85530    0.49720    0.14200    1.000
    O66      O        0.77990    0.43040    0.18600    1.000
    N55      N        0.53420    0.50280    0.40760    1.000
    O67      O        0.56350    0.46020    0.36860    1.000
    O68      O        0.48080    0.55380    0.39360    1.000
    O69      O        0.55200    0.49360    0.45840    1.000
    N56      N        0.33290    0.74400    0.52740    1.000
    O70      O        0.35800    0.69820    0.49580    1.000
    O71      O        0.30680    0.79240    0.50160    1.000
    O72      O        0.33860    0.73800    0.58240    1.000
