# CIF file generated by openbabel 3.1.0, see https://openbabel.org
data_I
_chemical_name_common 'image0'
_cell_length_a 10.39
_cell_length_b 16.087
_cell_length_c 18.717
_cell_angle_alpha 90
_cell_angle_beta 90
_cell_angle_gamma 90
_space_group_name_H-M_alt 'P 1'
_space_group_name_Hall 'P 1'
loop_
    _symmetry_equiv_pos_as_xyz
    x,y,z
loop_
    _atom_site_label
    _atom_site_type_symbol
    _atom_site_fract_x
    _atom_site_fract_y
    _atom_site_fract_z
    _atom_site_occupancy
    Sn1      Sn       0.50950    0.75400    0.15200    1.000
    Sn2      Sn       0.65180    0.35160    0.06410    1.000
    Sn3      Sn       0.30740    0.38540    0.06760    1.000
    P1       P        0.51660    0.55210    0.09280    1.000
    P2       P        0.25040    0.80490    0.24340    1.000
    O1       O        0.33970    0.73150    0.21360    1.000
    O2       O        0.11230    0.76520    0.24800    1.000
    O3       O        0.53710    0.61570    0.15850    1.000
    O4       O        0.47090    0.31570    0.10510    1.000
    O5       O        0.62690    0.48500    0.09600    1.000
    O6       O        0.29160    0.83420    0.31880    1.000
    O7       O        0.52180    0.60530    0.02130    1.000
    O8       O        0.38450    0.50870    0.10270    1.000
    O9       O        0.25070    0.88200    0.18990    1.000
    Sn4      Sn       0.49050    0.25400    0.34800    1.000
    Sn5      Sn       0.34820    0.85160    0.43590    1.000
    Sn6      Sn       0.69260    0.88540    0.43240    1.000
    P3       P        0.48340    0.05210    0.40720    1.000
    P4       P        0.74960    0.30490    0.25660    1.000
    O10      O        0.66030    0.23150    0.28640    1.000
    O11      O        0.88770    0.26520    0.25200    1.000
    O12      O        0.46290    0.11570    0.34150    1.000
    O13      O        0.52910    0.81570    0.39490    1.000
    O14      O        0.37310    0.98500    0.40400    1.000
    O15      O        0.70840    0.33420    0.18120    1.000
    O16      O        0.47820    0.10530    0.47870    1.000
    O17      O        0.61550    0.00870    0.39730    1.000
    O18      O        0.74930    0.38200    0.31010    1.000
    Sn7      Sn       0.00950    0.75400    0.34800    1.000
    Sn8      Sn       0.15180    0.35160    0.43590    1.000
    Sn9      Sn       0.80740    0.38540    0.43240    1.000
    P5       P        0.01660    0.55210    0.40720    1.000
    P6       P        0.75040    0.80490    0.25660    1.000
    O19      O        0.83970    0.73150    0.28640    1.000
    O20      O        0.61230    0.76520    0.25200    1.000
    O21      O        0.03710    0.61570    0.34150    1.000
    O22      O        0.97090    0.31570    0.39490    1.000
    O23      O        0.12690    0.48500    0.40400    1.000
    O24      O        0.79160    0.83420    0.18120    1.000
    O25      O        0.02180    0.60530    0.47870    1.000
    O26      O        0.88450    0.50870    0.39730    1.000
    O27      O        0.75070    0.88200    0.31010    1.000
    Sn10     Sn       0.99050    0.25400    0.15200    1.000
    Sn11     Sn       0.84820    0.85160    0.06410    1.000
    Sn12     Sn       0.19260    0.88540    0.06760    1.000
    P7       P        0.98340    0.05210    0.09280    1.000
    P8       P        0.24960    0.30490    0.24340    1.000
    O28      O        0.16030    0.23150    0.21360    1.000
    O29      O        0.38770    0.26520    0.24800    1.000
    O30      O        0.96290    0.11570    0.15850    1.000
    O31      O        0.02910    0.81570    0.10510    1.000
    O32      O        0.87310    0.98500    0.09600    1.000
    O33      O        0.20840    0.33420    0.31880    1.000
    O34      O        0.97820    0.10530    0.02130    1.000
    O35      O        0.11550    0.00870    0.10270    1.000
    O36      O        0.24930    0.38200    0.18990    1.000
    Sn13     Sn       0.99050    0.24600    0.65200    1.000
    Sn14     Sn       0.84820    0.64840    0.56410    1.000
    Sn15     Sn       0.19260    0.61460    0.56760    1.000
    P9       P        0.98340    0.44790    0.59280    1.000
    P10      P        0.24960    0.19510    0.74340    1.000
    O37      O        0.16030    0.26850    0.71360    1.000
    O38      O        0.38770    0.23480    0.74800    1.000
    O39      O        0.96290    0.38430    0.65850    1.000
    O40      O        0.02910    0.68430    0.60510    1.000
    O41      O        0.87310    0.51500    0.59600    1.000
    O42      O        0.20840    0.16580    0.81880    1.000
    O43      O        0.97820    0.39470    0.52130    1.000
    O44      O        0.11550    0.49130    0.60270    1.000
    O45      O        0.24930    0.11800    0.68990    1.000
    Sn16     Sn       0.00950    0.74600    0.84800    1.000
    Sn17     Sn       0.15180    0.14840    0.93590    1.000
    Sn18     Sn       0.80740    0.11460    0.93240    1.000
    P11      P        0.01660    0.94790    0.90720    1.000
    P12      P        0.75040    0.69510    0.75660    1.000
    O46      O        0.83970    0.76850    0.78640    1.000
    O47      O        0.61230    0.73480    0.75200    1.000
    O48      O        0.03710    0.88430    0.84150    1.000
    O49      O        0.97090    0.18430    0.89490    1.000
    O50      O        0.12690    0.01500    0.90400    1.000
    O51      O        0.79160    0.66580    0.68120    1.000
    O52      O        0.02180    0.89470    0.97870    1.000
    O53      O        0.88450    0.99130    0.89730    1.000
    O54      O        0.75070    0.61800    0.81010    1.000
    Sn19     Sn       0.49050    0.24600    0.84800    1.000
    Sn20     Sn       0.34820    0.64840    0.93590    1.000
    Sn21     Sn       0.69260    0.61460    0.93240    1.000
    P13      P        0.48340    0.44790    0.90720    1.000
    P14      P        0.74960    0.19510    0.75660    1.000
    O55      O        0.66030    0.26850    0.78640    1.000
    O56      O        0.88770    0.23480    0.75200    1.000
    O57      O        0.46290    0.38430    0.84150    1.000
    O58      O        0.52910    0.68430    0.89490    1.000
    O59      O        0.37310    0.51500    0.90400    1.000
    O60      O        0.70840    0.16580    0.68120    1.000
    O61      O        0.47820    0.39470    0.97870    1.000
    O62      O        0.61550    0.49130    0.89730    1.000
    O63      O        0.74930    0.11800    0.81010    1.000
    Sn22     Sn       0.50950    0.74600    0.65200    1.000
    Sn23     Sn       0.65180    0.14840    0.56410    1.000
    Sn24     Sn       0.30740    0.11460    0.56760    1.000
    P15      P        0.51660    0.94790    0.59280    1.000
    P16      P        0.25040    0.69510    0.74340    1.000
    O64      O        0.33970    0.76850    0.71360    1.000
    O65      O        0.11230    0.73480    0.74800    1.000
    O66      O        0.53710    0.88430    0.65850    1.000
    O67      O        0.47090    0.18430    0.60510    1.000
    O68      O        0.62690    0.01500    0.59600    1.000
    O69      O        0.29160    0.66580    0.81880    1.000
    O70      O        0.52180    0.89470    0.52130    1.000
    O71      O        0.38450    0.99130    0.60270    1.000
    O72      O        0.25070    0.61800    0.68990    1.000
