# CIF file generated by openbabel 3.1.0, see https://openbabel.org
data_I
_chemical_name_common 'image0'
_cell_length_a 10.3973
_cell_length_b 23.431
_cell_length_c 6.927
_cell_angle_alpha 90
_cell_angle_beta 90
_cell_angle_gamma 90
_space_group_name_H-M_alt 'P 1'
_space_group_name_Hall 'P 1'
loop_
    _symmetry_equiv_pos_as_xyz
    x,y,z
loop_
    _atom_site_label
    _atom_site_type_symbol
    _atom_site_fract_x
    _atom_site_fract_y
    _atom_site_fract_z
    _atom_site_occupancy
    Zn1      Zn       0.50000    0.36596    0.25000    1.000
    O1       O        0.50000    0.45170    0.25000    1.000
    Zn2      Zn       0.00000    0.86596    0.25000    1.000
    O2       O        0.00000    0.95170    0.25000    1.000
    Zn3      Zn       0.50000    0.63404    0.75000    1.000
    O3       O        0.50000    0.54830    0.75000    1.000
    Zn4      Zn       0.00000    0.13404    0.75000    1.000
    O4       O        0.00000    0.04830    0.75000    1.000
    Zn5      Zn       0.50000    0.50000    0.00000    1.000
    Zn6      Zn       0.00000    0.00000    0.00000    1.000
    Zn7      Zn       0.50000    0.50000    0.50000    1.000
    Zn8      Zn       0.00000    0.00000    0.50000    1.000
    O5       O        0.34260    0.31970    0.25000    1.000
    O6       O        0.23690    0.40070    0.25000    1.000
    C1       C        0.11600    0.25590    0.25000    1.000
    H1       H        0.19340    0.23610    0.25000    1.000
    C2       C        0.11570    0.31540    0.25000    1.000
    C3       C        0.24080    0.34870    0.25000    1.000
    O7       O        0.84260    0.81970    0.25000    1.000
    O8       O        0.73690    0.90070    0.25000    1.000
    C4       C        0.61600    0.75590    0.25000    1.000
    H2       H        0.69340    0.73610    0.25000    1.000
    C5       C        0.61570    0.81540    0.25000    1.000
    C6       C        0.74080    0.84870    0.25000    1.000
    O9       O        0.65740    0.68030    0.75000    1.000
    O10      O        0.76310    0.59930    0.75000    1.000
    C7       C        0.88400    0.74410    0.75000    1.000
    H3       H        0.80660    0.76390    0.75000    1.000
    C8       C        0.88430    0.68460    0.75000    1.000
    C9       C        0.75920    0.65130    0.75000    1.000
    O11      O        0.15740    0.18030    0.75000    1.000
    O12      O        0.26310    0.09930    0.75000    1.000
    C10      C        0.38400    0.24410    0.75000    1.000
    H4       H        0.30660    0.26390    0.75000    1.000
    C11      C        0.38430    0.18460    0.75000    1.000
    C12      C        0.25920    0.15130    0.75000    1.000
    O13      O        0.65740    0.31970    0.25000    1.000
    O14      O        0.76310    0.40070    0.25000    1.000
    C13      C        0.88400    0.25590    0.25000    1.000
    H5       H        0.80660    0.23610    0.25000    1.000
    C14      C        0.88430    0.31540    0.25000    1.000
    C15      C        0.75920    0.34870    0.25000    1.000
    O15      O        0.15740    0.81970    0.25000    1.000
    O16      O        0.26310    0.90070    0.25000    1.000
    C16      C        0.38400    0.75590    0.25000    1.000
    H6       H        0.30660    0.73610    0.25000    1.000
    C17      C        0.38430    0.81540    0.25000    1.000
    C18      C        0.25920    0.84870    0.25000    1.000
    O17      O        0.34260    0.68030    0.75000    1.000
    O18      O        0.23690    0.59930    0.75000    1.000
    C19      C        0.11600    0.74410    0.75000    1.000
    H7       H        0.19340    0.76390    0.75000    1.000
    C20      C        0.11570    0.68460    0.75000    1.000
    C21      C        0.24080    0.65130    0.75000    1.000
    O19      O        0.84260    0.18030    0.75000    1.000
    O20      O        0.73690    0.09930    0.75000    1.000
    C22      C        0.61600    0.24410    0.75000    1.000
    H8       H        0.69340    0.26390    0.75000    1.000
    C23      C        0.61570    0.18460    0.75000    1.000
    C24      C        0.74080    0.15130    0.75000    1.000
    N1       N        0.00000    0.13073    0.40920    1.000
    N2       N        0.00000    0.07700    0.34200    1.000
    N3       N        0.50000    0.63073    0.40920    1.000
    N4       N        0.50000    0.57700    0.34200    1.000
    N5       N        0.00000    0.86927    0.90920    1.000
    N6       N        0.00000    0.92300    0.84200    1.000
    N7       N        0.50000    0.36927    0.90920    1.000
    N8       N        0.50000    0.42300    0.84200    1.000
    N9       N        0.00000    0.13073    0.09080    1.000
    N10      N        0.00000    0.07700    0.15800    1.000
    N11      N        0.50000    0.63073    0.09080    1.000
    N12      N        0.50000    0.57700    0.15800    1.000
    N13      N        0.00000    0.86927    0.59080    1.000
    N14      N        0.00000    0.92300    0.65800    1.000
    N15      N        0.50000    0.36927    0.59080    1.000
    N16      N        0.50000    0.42300    0.65800    1.000
    C25      C        0.00000    0.16230    0.25000    1.000
    C26      C        0.00000    0.22640    0.25000    1.000
    C27      C        0.00000    0.34530    0.25000    1.000
    H9       H        0.00000    0.38500    0.25000    1.000
    C28      C        0.50000    0.66230    0.25000    1.000
    C29      C        0.50000    0.72640    0.25000    1.000
    C30      C        0.50000    0.84530    0.25000    1.000
    H10      H        0.50000    0.88500    0.25000    1.000
    C31      C        0.00000    0.83770    0.75000    1.000
    C32      C        0.00000    0.77360    0.75000    1.000
    C33      C        0.00000    0.65470    0.75000    1.000
    H11      H        0.00000    0.61500    0.75000    1.000
    C34      C        0.50000    0.33770    0.75000    1.000
    C35      C        0.50000    0.27360    0.75000    1.000
    C36      C        0.50000    0.15470    0.75000    1.000
    H12      H        0.50000    0.11500    0.75000    1.000
