# CIF file generated by openbabel 3.1.0, see https://openbabel.org
data_I
_chemical_name_common 'cm501138g_si_012_clean'
_cell_length_a 18.5977
_cell_length_b 18.5977
_cell_length_c 18.5977
_cell_angle_alpha 60
_cell_angle_beta 60
_cell_angle_gamma 60
_space_group_name_H-M_alt 'P 1'
_space_group_name_Hall 'P 1'
loop_
    _symmetry_equiv_pos_as_xyz
    x,y,z
loop_
    _atom_site_label
    _atom_site_type_symbol
    _atom_site_fract_x
    _atom_site_fract_y
    _atom_site_fract_z
    _atom_site_occupancy
    Cu1      Cu       0.00000    0.00000    0.43116    1.000
    Cu2      Cu       0.00000    0.43116    0.00000    1.000
    Cu3      Cu       0.43116    0.00000    0.00000    1.000
    Cu4      Cu       0.43116    0.56884    0.00000    1.000
    Cu5      Cu       0.43116    0.00000    0.56884    1.000
    Cu6      Cu       0.00000    0.00000    0.56884    1.000
    Cu7      Cu       0.00000    0.56884    0.00000    1.000
    Cu8      Cu       0.00000    0.43116    0.56884    1.000
    Cu9      Cu       0.56884    0.43116    0.00000    1.000
    Cu10     Cu       0.56884    0.00000    0.43116    1.000
    Cu11     Cu       0.56884    0.00000    0.00000    1.000
    Cu12     Cu       0.00000    0.56884    0.43116    1.000
    H1       H        0.72850    0.03030    0.51270    1.000
    H2       H        0.03030    0.72850    0.72850    1.000
    H3       H        0.48730    0.27150    0.96970    1.000
    H4       H        0.96970    0.48730    0.27150    1.000
    H5       H        0.72850    0.51270    0.03030    1.000
    H6       H        0.27150    0.96970    0.27150    1.000
    H7       H        0.27150    0.96970    0.48730    1.000
    H8       H        0.48730    0.96970    0.27150    1.000
    H9       H        0.96970    0.27150    0.27150    1.000
    H10      H        0.96970    0.27150    0.48730    1.000
    H11      H        0.27150    0.48730    0.27150    1.000
    H12      H        0.27150    0.27150    0.48730    1.000
    H13      H        0.72850    0.03030    0.72850    1.000
    H14      H        0.51270    0.72850    0.03030    1.000
    H15      H        0.48730    0.27150    0.27150    1.000
    H16      H        0.03030    0.72850    0.51270    1.000
    H17      H        0.51270    0.72850    0.72850    1.000
    H18      H        0.72850    0.72850    0.03030    1.000
    H19      H        0.51270    0.03030    0.72850    1.000
    H20      H        0.72850    0.72850    0.51270    1.000
    H21      H        0.27150    0.27150    0.96970    1.000
    H22      H        0.03030    0.51270    0.72850    1.000
    H23      H        0.72850    0.51270    0.72850    1.000
    H24      H        0.27150    0.48730    0.96970    1.000
    C1       C        0.57057    0.02981    0.69981    1.000
    C2       C        0.25680    0.97060    0.38630    1.000
    C3       C        0.02360    0.56910    0.83820    1.000
    C4       C        0.69981    0.69981    0.57057    1.000
    C5       C        0.69981    0.02981    0.57057    1.000
    C6       C        0.83820    0.56910    0.02360    1.000
    C7       C        0.02981    0.57057    0.69981    1.000
    C8       C        0.43090    0.16180    0.97640    1.000
    C9       C        0.74320    0.02940    0.61370    1.000
    C10      C        0.56910    0.02360    0.83820    1.000
    C11      C        0.97060    0.25680    0.38630    1.000
    C12      C        0.43090    0.16180    0.43090    1.000
    C13      C        0.61370    0.74320    0.02940    1.000
    C14      C        0.56910    0.83820    0.02360    1.000
    C15      C        0.30019    0.30019    0.97019    1.000
    C16      C        0.97640    0.43090    0.16180    1.000
    C17      C        0.61370    0.02940    0.74320    1.000
    C18      C        0.97019    0.30019    0.42943    1.000
    C19      C        0.74320    0.61370    0.02940    1.000
    C20      C        0.16180    0.43090    0.97640    1.000
    C21      C        0.16180    0.43090    0.43090    1.000
    C22      C        0.69981    0.57057    0.02981    1.000
    C23      C        0.61370    0.61370    0.74320    1.000
    C24      C        0.16180    0.97640    0.43090    1.000
    C25      C        0.57057    0.69981    0.02981    1.000
    C26      C        0.25680    0.38630    0.97060    1.000
    C27      C        0.97019    0.42943    0.30019    1.000
    C28      C        0.61370    0.74320    0.61370    1.000
    C29      C        0.02981    0.69981    0.57057    1.000
    C30      C        0.69981    0.57057    0.69981    1.000
    C31      C        0.02940    0.74320    0.61370    1.000
    C32      C        0.38630    0.25680    0.97060    1.000
    C33      C        0.97019    0.30019    0.30019    1.000
    C34      C        0.38630    0.97060    0.38630    1.000
    C35      C        0.69981    0.02981    0.69981    1.000
    C36      C        0.02360    0.56910    0.56910    1.000
    C37      C        0.02360    0.83820    0.56910    1.000
    C38      C        0.83820    0.56910    0.56910    1.000
    C39      C        0.30019    0.97019    0.30019    1.000
    C40      C        0.61370    0.61370    0.02940    1.000
    C41      C        0.02940    0.61370    0.61370    1.000
    C42      C        0.43090    0.43090    0.16180    1.000
    C43      C        0.38630    0.38630    0.97060    1.000
    C44      C        0.38630    0.38630    0.25680    1.000
    C45      C        0.02981    0.69981    0.69981    1.000
    C46      C        0.43090    0.43090    0.97640    1.000
    C47      C        0.56910    0.56910    0.83820    1.000
    C48      C        0.42943    0.97019    0.30019    1.000
    C49      C        0.83820    0.02360    0.56910    1.000
    C50      C        0.38630    0.97060    0.25680    1.000
    C51      C        0.56910    0.02360    0.56910    1.000
    C52      C        0.97640    0.16180    0.43090    1.000
    C53      C        0.30019    0.42943    0.97019    1.000
    C54      C        0.30019    0.97019    0.42943    1.000
    C55      C        0.56910    0.56910    0.02360    1.000
    C56      C        0.43090    0.97640    0.43090    1.000
    C57      C        0.42943    0.30019    0.97019    1.000
    C58      C        0.56910    0.83820    0.56910    1.000
    C59      C        0.74320    0.61370    0.61370    1.000
    C60      C        0.02940    0.61370    0.74320    1.000
    C61      C        0.30019    0.42943    0.30019    1.000
    C62      C        0.38630    0.25680    0.38630    1.000
    C63      C        0.97060    0.38630    0.25680    1.000
    C64      C        0.69981    0.69981    0.02981    1.000
    C65      C        0.97640    0.43090    0.43090    1.000
    C66      C        0.42943    0.30019    0.30019    1.000
    C67      C        0.57057    0.69981    0.69981    1.000
    C68      C        0.43090    0.97640    0.16180    1.000
    C69      C        0.30019    0.30019    0.42943    1.000
    C70      C        0.97060    0.38630    0.38630    1.000
    C71      C        0.61370    0.02940    0.61370    1.000
    C72      C        0.25680    0.38630    0.38630    1.000
    O1       O        0.50774    0.97904    0.38758    1.000
    O2       O        0.02096    0.49226    0.61242    1.000
    O3       O        0.02096    0.61242    0.87436    1.000
    O4       O        0.87436    0.49226    0.02096    1.000
    O5       O        0.87436    0.61242    0.02096    1.000
    O6       O        0.97904    0.50774    0.38758    1.000
    O7       O        0.49226    0.61242    0.02096    1.000
    O8       O        0.12564    0.97904    0.50774    1.000
    O9       O        0.12564    0.38758    0.97904    1.000
    O10      O        0.38758    0.12564    0.97904    1.000
    O11      O        0.50774    0.97904    0.12564    1.000
    O12      O        0.49226    0.61242    0.87436    1.000
    O13      O        0.49226    0.87436    0.61242    1.000
    O14      O        0.38758    0.50774    0.97904    1.000
    O15      O        0.87436    0.49226    0.61242    1.000
    O16      O        0.50774    0.38758    0.12564    1.000
    O17      O        0.61242    0.87436    0.49226    1.000
    O18      O        0.38758    0.12564    0.50774    1.000
    O19      O        0.97904    0.38758    0.12564    1.000
    O20      O        0.61242    0.49226    0.87436    1.000
    O21      O        0.02096    0.87436    0.61242    1.000
    O22      O        0.97904    0.38758    0.50774    1.000
    O23      O        0.61242    0.49226    0.02096    1.000
    O24      O        0.87436    0.02096    0.49226    1.000
    O25      O        0.12564    0.50774    0.38758    1.000
    O26      O        0.38758    0.97904    0.12564    1.000
    O27      O        0.61242    0.87436    0.02096    1.000
    O28      O        0.02096    0.49226    0.87436    1.000
    O29      O        0.50774    0.12564    0.38758    1.000
    O30      O        0.49226    0.02096    0.87436    1.000
    O31      O        0.97904    0.50774    0.12564    1.000
    O32      O        0.12564    0.97904    0.38758    1.000
    O33      O        0.38758    0.97904    0.50774    1.000
    O34      O        0.38758    0.50774    0.12564    1.000
    O35      O        0.02096    0.87436    0.49226    1.000
    O36      O        0.12564    0.38758    0.50774    1.000
    O37      O        0.61242    0.02096    0.87436    1.000
    O38      O        0.50774    0.38758    0.97904    1.000
    O39      O        0.50774    0.12564    0.97904    1.000
    O40      O        0.61242    0.02096    0.49226    1.000
    O41      O        0.49226    0.87436    0.02096    1.000
    O42      O        0.12564    0.50774    0.97904    1.000
    O43      O        0.87436    0.02096    0.61242    1.000
    O44      O        0.97904    0.12564    0.38758    1.000
    O45      O        0.49226    0.02096    0.61242    1.000
    O46      O        0.87436    0.61242    0.49226    1.000
    O47      O        0.97904    0.12564    0.50774    1.000
    O48      O        0.02096    0.61242    0.49226    1.000
