# CIF file generated by openbabel 3.1.0, see https://openbabel.org
data_I
_chemical_name_common 'XUMTUV_clean'
_cell_length_a 13.6831
_cell_length_b 13.6831
_cell_length_c 16.1955
_cell_angle_alpha 66.5815
_cell_angle_beta 66.5815
_cell_angle_gamma 74.9456
_space_group_name_H-M_alt 'P 1'
_space_group_name_Hall 'P 1'
loop_
    _symmetry_equiv_pos_as_xyz
    x,y,z
loop_
    _atom_site_label
    _atom_site_type_symbol
    _atom_site_fract_x
    _atom_site_fract_y
    _atom_site_fract_z
    _atom_site_occupancy
    Ho1      Ho       0.66281    0.95456    0.99796    1.000
    Ho2      Ho       0.04544    0.33719    0.50204    1.000
    Ho3      Ho       0.33719    0.04544    0.00204    1.000
    Ho4      Ho       0.95456    0.66281    0.49796    1.000
    H1       H        0.83710    0.72570    0.24400    1.000
    H2       H        0.96000    0.41840    0.27700    1.000
    H3       H        0.84370    0.59150    0.06210    1.000
    H4       H        0.57900    0.63020    0.15400    1.000
    H5       H        0.27430    0.16290    0.25600    1.000
    H6       H        0.58160    0.04000    0.22300    1.000
    H7       H        0.40850    0.15630    0.43790    1.000
    H8       H        0.36980    0.42100    0.34600    1.000
    H9       H        0.16290    0.27430    0.75600    1.000
    H10      H        0.04000    0.58160    0.72300    1.000
    H11      H        0.15630    0.40850    0.93790    1.000
    H12      H        0.42100    0.36980    0.84600    1.000
    H13      H        0.72570    0.83710    0.74400    1.000
    H14      H        0.41840    0.96000    0.77700    1.000
    H15      H        0.59150    0.84370    0.56210    1.000
    H16      H        0.63020    0.57900    0.65400    1.000
    H17      H        0.26660    0.73340    0.25000    1.000
    H18      H        0.73340    0.26660    0.75000    1.000
    C1       C        0.44900    0.81080    0.12470    1.000
    C2       C        0.83200    0.67480    0.14510    1.000
    C3       C        0.85490    0.66650    0.22390    1.000
    C4       C        0.90380    0.57160    0.27320    1.000
    C5       C        0.92840    0.48320    0.24430    1.000
    C6       C        0.90500    0.49320    0.16650    1.000
    C7       C        0.85760    0.58740    0.11520    1.000
    C8       C        0.77780    0.77620    0.09070    1.000
    C9       C        0.92990    0.56350    0.35790    1.000
    C10      C        0.42530    0.69890    0.19040    1.000
    C11      C        0.50880    0.61680    0.19160    1.000
    C12      C        0.18920    0.55100    0.37530    1.000
    C13      C        0.32520    0.16800    0.35490    1.000
    C14      C        0.33350    0.14510    0.27610    1.000
    C15      C        0.42840    0.09620    0.22680    1.000
    C16      C        0.51680    0.07160    0.25570    1.000
    C17      C        0.50680    0.09500    0.33350    1.000
    C18      C        0.41260    0.14240    0.38480    1.000
    C19      C        0.22380    0.22220    0.40930    1.000
    C20      C        0.43650    0.07010    0.14210    1.000
    C21      C        0.30110    0.57470    0.30960    1.000
    C22      C        0.38320    0.49120    0.30840    1.000
    C23      C        0.55100    0.18920    0.87530    1.000
    C24      C        0.16800    0.32520    0.85490    1.000
    C25      C        0.14510    0.33350    0.77610    1.000
    C26      C        0.09620    0.42840    0.72680    1.000
    C27      C        0.07160    0.51680    0.75570    1.000
    C28      C        0.09500    0.50680    0.83350    1.000
    C29      C        0.14240    0.41260    0.88480    1.000
    C30      C        0.22220    0.22380    0.90930    1.000
    C31      C        0.07010    0.43650    0.64210    1.000
    C32      C        0.57470    0.30110    0.80960    1.000
    C33      C        0.49120    0.38320    0.80840    1.000
    C34      C        0.81080    0.44900    0.62470    1.000
    C35      C        0.67480    0.83200    0.64510    1.000
    C36      C        0.66650    0.85490    0.72390    1.000
    C37      C        0.57160    0.90380    0.77320    1.000
    C38      C        0.48320    0.92840    0.74430    1.000
    C39      C        0.49320    0.90500    0.66650    1.000
    C40      C        0.58740    0.85760    0.61520    1.000
    C41      C        0.77620    0.77780    0.59070    1.000
    C42      C        0.56350    0.92990    0.85790    1.000
    C43      C        0.69890    0.42530    0.69040    1.000
    C44      C        0.61680    0.50880    0.69160    1.000
    C45      C        0.32240    0.67760    0.25000    1.000
    C46      C        0.48550    0.51450    0.25000    1.000
    C47      C        0.67760    0.32240    0.75000    1.000
    C48      C        0.51450    0.48550    0.75000    1.000
    N1       N        0.92770    0.39910    0.13430    1.000
    N2       N        0.60090    0.07230    0.36570    1.000
    N3       N        0.07230    0.60090    0.86570    1.000
    N4       N        0.39910    0.92770    0.63430    1.000
    N5       N        0.57410    0.42590    0.25000    1.000
    N6       N        0.42590    0.57410    0.75000    1.000
    O1       O        0.73550    0.85130    0.12570    1.000
    O2       O        0.77080    0.78000    0.01540    1.000
    O3       O        0.54630    0.82590    0.08620    1.000
    O4       O        0.37250    0.87990    0.11060    1.000
    O5       O        0.91040    0.64700    0.37880    1.000
    O6       O        0.96980    0.47420    0.40120    1.000
    O7       O        0.95940    0.31400    0.18530    1.000
    O8       O        0.91730    0.41190    0.06110    1.000
    O9       O        0.66420    0.44860    0.20260    1.000
    O10      O        0.14870    0.26450    0.37430    1.000
    O11      O        0.22000    0.22920    0.48460    1.000
    O12      O        0.17410    0.45370    0.41380    1.000
    O13      O        0.12010    0.62750    0.38940    1.000
    O14      O        0.35300    0.08960    0.12120    1.000
    O15      O        0.52580    0.03020    0.09880    1.000
    O16      O        0.68600    0.04060    0.31470    1.000
    O17      O        0.58810    0.08270    0.43890    1.000
    O18      O        0.55140    0.33580    0.29740    1.000
    O19      O        0.26450    0.14870    0.87430    1.000
    O20      O        0.22920    0.22000    0.98460    1.000
    O21      O        0.45370    0.17410    0.91380    1.000
    O22      O        0.62750    0.12010    0.88940    1.000
    O23      O        0.08960    0.35300    0.62120    1.000
    O24      O        0.03020    0.52580    0.59880    1.000
    O25      O        0.04060    0.68600    0.81470    1.000
    O26      O        0.08270    0.58810    0.93890    1.000
    O27      O        0.33580    0.55140    0.79740    1.000
    O28      O        0.85130    0.73550    0.62570    1.000
    O29      O        0.78000    0.77080    0.51540    1.000
    O30      O        0.82590    0.54630    0.58620    1.000
    O31      O        0.87990    0.37250    0.61060    1.000
    O32      O        0.64700    0.91040    0.87880    1.000
    O33      O        0.47420    0.96980    0.90120    1.000
    O34      O        0.31400    0.95940    0.68530    1.000
    O35      O        0.41190    0.91730    0.56110    1.000
    O36      O        0.44860    0.66420    0.70260    1.000
