# CIF file generated by openbabel 3.1.0, see https://openbabel.org
data_I
_chemical_name_common 'REXFOR_clean'
_cell_length_a 14.879
_cell_length_b 18.852
_cell_length_c 30.836
_cell_angle_alpha 100.818
_cell_angle_beta 90
_cell_angle_gamma 113.243
_space_group_name_H-M_alt 'P 1'
_space_group_name_Hall 'P 1'
loop_
    _symmetry_equiv_pos_as_xyz
    x,y,z
loop_
    _atom_site_label
    _atom_site_type_symbol
    _atom_site_fract_x
    _atom_site_fract_y
    _atom_site_fract_z
    _atom_site_occupancy
    Zn1      Zn       0.52040    0.25208    0.55832    1.000
    Zn2      Zn       0.79975    0.84602    0.90331    1.000
    Zn3      Zn       0.18132    0.64824    0.22369    1.000
    Zn4      Zn       0.73168    0.25208    0.05832    1.000
    Zn5      Zn       0.04627    0.84602    0.40331    1.000
    Zn6      Zn       0.46692    0.64824    0.72369    1.000
    H1       H        0.74040    0.32340    0.57270    1.000
    H2       H        0.86730    0.41320    0.62440    1.000
    H3       H        0.66280    0.46260    0.69570    1.000
    H4       H        0.54260    0.36660    0.64540    1.000
    H5       H        0.33280    0.72100    0.76050    1.000
    H6       H        0.17120    0.70380    0.76120    1.000
    H7       H        0.10690    0.50660    0.67000    1.000
    H8       H        0.27000    0.52860    0.66970    1.000
    H9       H        0.69170    0.69300    0.83600    1.000
    H10      H        0.72460    0.60920    0.78060    1.000
    H11      H        0.01060    0.73860    0.81380    1.000
    H12      H        0.97090    0.82160    0.86530    1.000
    H13      H        0.00820    0.96980    0.93370    1.000
    H14      H        0.14450    0.98740    0.97460    1.000
    H15      H        0.97880    0.79780    0.02320    1.000
    H16      H        0.85020    0.78140    0.97420    1.000
    H17      H        0.63270    0.12540    0.10630    1.000
    H18      H        0.47920    0.03060    0.11040    1.000
    H19      H        0.39550    0.05640    0.99450    1.000
    H20      H        0.54260    0.15440    0.99510    1.000
    H21      H        0.07720    0.64480    0.13730    1.000
    H22      H        0.08870    0.72600    0.08850    1.000
    H23      H        0.34360    0.88120    0.15620    1.000
    H24      H        0.31940    0.79960    0.20640    1.000
    H25      H        0.58300    0.32340    0.07270    1.000
    H26      H        0.54590    0.41320    0.12440    1.000
    H27      H        0.79980    0.46260    0.19570    1.000
    H28      H        0.82400    0.36660    0.14540    1.000
    H29      H        0.38820    0.72100    0.26050    1.000
    H30      H        0.53260    0.70380    0.26120    1.000
    H31      H        0.39970    0.50660    0.17000    1.000
    H32      H        0.25860    0.52860    0.16970    1.000
    H33      H        0.00130    0.69300    0.33600    1.000
    H34      H        0.88460    0.60920    0.28060    1.000
    H35      H        0.72800    0.73860    0.31380    1.000
    H36      H        0.85070    0.82160    0.36530    1.000
    H37      H        0.96160    0.96980    0.43370    1.000
    H38      H        0.84290    0.98740    0.47460    1.000
    H39      H        0.81900    0.79780    0.52320    1.000
    H40      H        0.93120    0.78140    0.47420    1.000
    H41      H        0.49270    0.12540    0.60630    1.000
    H42      H        0.55140    0.03060    0.61040    1.000
    H43      H        0.66090    0.05640    0.49450    1.000
    H44      H        0.61180    0.15440    0.49510    1.000
    H45      H        0.56760    0.64480    0.63730    1.000
    H46      H        0.63730    0.72600    0.58850    1.000
    H47      H        0.53760    0.88120    0.65620    1.000
    H48      H        0.48020    0.79960    0.70640    1.000
    C1       C        0.72490    0.35000    0.59910    1.000
    C2       C        0.80110    0.40540    0.62860    1.000
    C3       C        0.77700    0.45020    0.66540    1.000
    C4       C        0.68060    0.43380    0.67100    1.000
    C5       C        0.60920    0.37600    0.64110    1.000
    C6       C        0.85600    0.51660    0.69460    1.000
    C7       C        0.01520    0.58660    0.71660    1.000
    C8       C        0.90020    0.61720    0.75110    1.000
    C9       C        0.28540    0.67520    0.74210    1.000
    C10      C        0.18990    0.66660    0.74250    1.000
    C11      C        0.12250    0.60180    0.71460    1.000
    C12      C        0.15370    0.55200    0.68910    1.000
    C13      C        0.25010    0.56360    0.68950    1.000
    C14      C        0.75830    0.70320    0.83100    1.000
    C15      C        0.77730    0.65360    0.79740    1.000
    C16      C        0.87240    0.66780    0.78800    1.000
    C17      C        0.94340    0.72920    0.81650    1.000
    C18      C        0.91900    0.77680    0.84830    1.000
    C19      C        0.00280    0.93180    0.95100    1.000
    C20      C        0.08450    0.94420    0.97580    1.000
    C21      C        0.07850    0.89340    0.00220    1.000
    C22      C        0.98790    0.83260    0.00340    1.000
    C23      C        0.91130    0.82480    0.97470    1.000
    C24      C        0.16480    0.90300    0.03070    1.000
    C25      C        0.32590    0.96540    0.05450    1.000
    C26      C        0.23000    0.86540    0.08490    1.000
    C27      C        0.58210    0.11360    0.08400    1.000
    C28      C        0.49250    0.05460    0.08530    1.000
    C29      C        0.42250    0.03020    0.05150    1.000
    C30      C        0.44320    0.07020    0.01860    1.000
    C31      C        0.53000    0.12900    0.01970    1.000
    C32      C        0.13100    0.69460    0.14160    1.000
    C33      C        0.13790    0.74220    0.11220    1.000
    C34      C        0.21720    0.81420    0.11730    1.000
    C35      C        0.28640    0.83340    0.15240    1.000
    C36      C        0.27270    0.78380    0.18170    1.000
    C37      C        0.62510    0.35000    0.09910    1.000
    C38      C        0.60430    0.40540    0.12860    1.000
    C39      C        0.67320    0.45020    0.16540    1.000
    C40      C        0.75320    0.43380    0.17100    1.000
    C41      C        0.76680    0.37600    0.14110    1.000
    C42      C        0.66060    0.51660    0.19460    1.000
    C43      C        0.57140    0.58660    0.21660    1.000
    C44      C        0.71700    0.61720    0.25110    1.000
    C45      C        0.38980    0.67520    0.24210    1.000
    C46      C        0.47670    0.66660    0.24250    1.000
    C47      C        0.47930    0.60180    0.21460    1.000
    C48      C        0.39830    0.55200    0.18910    1.000
    C49      C        0.31350    0.56360    0.18950    1.000
    C50      C        0.94490    0.70320    0.33100    1.000
    C51      C        0.87630    0.65360    0.29740    1.000
    C52      C        0.79540    0.66780    0.28800    1.000
    C53      C        0.78580    0.72920    0.31650    1.000
    C54      C        0.85780    0.77680    0.34830    1.000
    C55      C        0.92900    0.93180    0.45100    1.000
    C56      C        0.85970    0.94420    0.47580    1.000
    C57      C        0.81490    0.89340    0.50220    1.000
    C58      C        0.84470    0.83260    0.50340    1.000
    C59      C        0.91350    0.82480    0.47470    1.000
    C60      C        0.73820    0.90300    0.53070    1.000
    C61      C        0.63950    0.96540    0.55450    1.000
    C62      C        0.63540    0.86540    0.58490    1.000
    C63      C        0.53150    0.11360    0.58400    1.000
    C64      C        0.56210    0.05460    0.58530    1.000
    C65      C        0.60770    0.03020    0.55150    1.000
    C66      C        0.62700    0.07020    0.51860    1.000
    C67      C        0.59900    0.12900    0.51970    1.000
    C68      C        0.56360    0.69460    0.64160    1.000
    C69      C        0.60430    0.74220    0.61220    1.000
    C70      C        0.59700    0.81420    0.61730    1.000
    C71      C        0.54700    0.83340    0.65240    1.000
    C72      C        0.51110    0.78380    0.68170    1.000
    I1       I        0.56088    0.30456    0.48805    1.000
    I2       I        0.36528    0.22224    0.59451    1.000
    I3       I        0.83392    0.96206    0.86617    1.000
    I4       I        0.64656    0.77362    0.93928    1.000
    I5       I        0.03311    0.52196    0.19774    1.000
    I6       I        0.20194    0.73952    0.29935    1.000
    I7       I        0.74368    0.30456    0.98805    1.000
    I8       I        0.85696    0.22224    0.09451    1.000
    I9       I        0.12814    0.96206    0.36617    1.000
    I10      I        0.12706    0.77362    0.43928    1.000
    I11      I        0.48885    0.52196    0.69774    1.000
    I12      I        0.53758    0.73952    0.79935    1.000
    N1       N        0.62910    0.33180    0.60590    1.000
    N2       N        0.94880    0.52780    0.68800    1.000
    N3       N        0.99370    0.63720    0.74800    1.000
    N4       N        0.82820    0.55720    0.72650    1.000
    N5       N        0.31760    0.62540    0.71840    1.000
    N6       N        0.82910    0.76580    0.85730    1.000
    N7       N        0.91730    0.87320    0.94830    1.000
    N8       N        0.25210    0.95780    0.02600    1.000
    N9       N        0.31850    0.92160    0.08400    1.000
    N10      N        0.14890    0.85220    0.05850    1.000
    N11      N        0.60070    0.15540    0.05180    1.000
    N12      N        0.19760    0.71560    0.17670    1.000
    N13      N        0.70270    0.33180    0.10590    1.000
    N14      N        0.57900    0.52780    0.18800    1.000
    N15      N        0.64350    0.63720    0.24800    1.000
    N16      N        0.72900    0.55720    0.22650    1.000
    N17      N        0.30780    0.62540    0.21840    1.000
    N18      N        0.93670    0.76580    0.35730    1.000
    N19      N        0.95590    0.87320    0.44830    1.000
    N20      N        0.70570    0.95780    0.52600    1.000
    N21      N        0.60310    0.92160    0.58400    1.000
    N22      N        0.70330    0.85220    0.55850    1.000
    N23      N        0.55470    0.15540    0.55180    1.000
    N24      N        0.51800    0.71560    0.67670    1.000
    Zn7      Zn       0.26832    0.74792    0.94168    1.000
    Zn8      Zn       0.95373    0.15398    0.59669    1.000
    Zn9      Zn       0.53308    0.35176    0.27631    1.000
    Zn10     Zn       0.47960    0.74792    0.44168    1.000
    Zn11     Zn       0.20025    0.15398    0.09669    1.000
    Zn12     Zn       0.81868    0.35176    0.77631    1.000
    H49      H        0.41700    0.67660    0.92730    1.000
    H50      H        0.45410    0.58680    0.87560    1.000
    H51      H        0.20020    0.53740    0.80430    1.000
    H52      H        0.17600    0.63340    0.85460    1.000
    H53      H        0.61180    0.27900    0.73950    1.000
    H54      H        0.46740    0.29620    0.73880    1.000
    H55      H        0.60030    0.49340    0.83000    1.000
    H56      H        0.74140    0.47140    0.83030    1.000
    H57      H        0.99870    0.30700    0.66400    1.000
    H58      H        0.11540    0.39080    0.71940    1.000
    H59      H        0.27200    0.26140    0.68620    1.000
    H60      H        0.14930    0.17840    0.63470    1.000
    H61      H        0.03840    0.03020    0.56630    1.000
    H62      H        0.15710    0.01260    0.52540    1.000
    H63      H        0.18100    0.20220    0.47680    1.000
    H64      H        0.06880    0.21860    0.52580    1.000
    H65      H        0.50730    0.87460    0.39370    1.000
    H66      H        0.44860    0.96940    0.38960    1.000
    H67      H        0.33910    0.94360    0.50550    1.000
    H68      H        0.38820    0.84560    0.50490    1.000
    H69      H        0.43240    0.35520    0.36270    1.000
    H70      H        0.36270    0.27400    0.41150    1.000
    H71      H        0.46240    0.11880    0.34380    1.000
    H72      H        0.51980    0.20040    0.29360    1.000
    H73      H        0.25960    0.67660    0.42730    1.000
    H74      H        0.13270    0.58680    0.37560    1.000
    H75      H        0.33720    0.53740    0.30430    1.000
    H76      H        0.45740    0.63340    0.35460    1.000
    H77      H        0.66720    0.27900    0.23950    1.000
    H78      H        0.82880    0.29620    0.23880    1.000
    H79      H        0.89310    0.49340    0.33000    1.000
    H80      H        0.73000    0.47140    0.33030    1.000
    H81      H        0.30830    0.30700    0.16400    1.000
    H82      H        0.27540    0.39080    0.21940    1.000
    H83      H        0.98940    0.26140    0.18620    1.000
    H84      H        0.02910    0.17840    0.13470    1.000
    H85      H        0.99180    0.03020    0.06630    1.000
    H86      H        0.85550    0.01260    0.02540    1.000
    H87      H        0.02120    0.20220    0.97680    1.000
    H88      H        0.14980    0.21860    0.02580    1.000
    H89      H        0.36730    0.87460    0.89370    1.000
    H90      H        0.52080    0.96940    0.88960    1.000
    H91      H        0.60450    0.94360    0.00550    1.000
    H92      H        0.45740    0.84560    0.00490    1.000
    H93      H        0.92280    0.35520    0.86270    1.000
    H94      H        0.91130    0.27400    0.91150    1.000
    H95      H        0.65640    0.11880    0.84380    1.000
    H96      H        0.68060    0.20040    0.79360    1.000
    C73      C        0.37490    0.65000    0.90090    1.000
    C74      C        0.39570    0.59460    0.87140    1.000
    C75      C        0.32680    0.54980    0.83460    1.000
    C76      C        0.24680    0.56620    0.82900    1.000
    C77      C        0.23320    0.62400    0.85890    1.000
    C78      C        0.33940    0.48340    0.80540    1.000
    C79      C        0.42860    0.41340    0.78340    1.000
    C80      C        0.28300    0.38280    0.74890    1.000
    C81      C        0.61020    0.32480    0.75790    1.000
    C82      C        0.52330    0.33340    0.75750    1.000
    C83      C        0.52070    0.39820    0.78540    1.000
    C84      C        0.60170    0.44800    0.81090    1.000
    C85      C        0.68650    0.43640    0.81050    1.000
    C86      C        0.05510    0.29680    0.66900    1.000
    C87      C        0.12370    0.34640    0.70260    1.000
    C88      C        0.20460    0.33220    0.71200    1.000
    C89      C        0.21420    0.27080    0.68350    1.000
    C90      C        0.14220    0.22320    0.65170    1.000
    C91      C        0.07100    0.06820    0.54900    1.000
    C92      C        0.14030    0.05580    0.52420    1.000
    C93      C        0.18510    0.10660    0.49780    1.000
    C94      C        0.15530    0.16740    0.49660    1.000
    C95      C        0.08650    0.17520    0.52530    1.000
    C96      C        0.26180    0.09700    0.46930    1.000
    C97      C        0.36050    0.03460    0.44550    1.000
    C98      C        0.36460    0.13460    0.41510    1.000
    C99      C        0.46850    0.88640    0.41600    1.000
    C100     C        0.43790    0.94540    0.41470    1.000
    C101     C        0.39230    0.96980    0.44850    1.000
    C102     C        0.37300    0.92980    0.48140    1.000
    C103     C        0.40100    0.87100    0.48030    1.000
    C104     C        0.43640    0.30540    0.35840    1.000
    C105     C        0.39570    0.25780    0.38780    1.000
    C106     C        0.40300    0.18580    0.38270    1.000
    C107     C        0.45300    0.16660    0.34760    1.000
    C108     C        0.48890    0.21620    0.31830    1.000
    C109     C        0.27510    0.65000    0.40090    1.000
    C110     C        0.19890    0.59460    0.37140    1.000
    C111     C        0.22300    0.54980    0.33460    1.000
    C112     C        0.31940    0.56620    0.32900    1.000
    C113     C        0.39080    0.62400    0.35890    1.000
    C114     C        0.14400    0.48340    0.30540    1.000
    C115     C        0.98480    0.41340    0.28340    1.000
    C116     C        0.09980    0.38280    0.24890    1.000
    C117     C        0.71460    0.32480    0.25790    1.000
    C118     C        0.81010    0.33340    0.25750    1.000
    C119     C        0.87750    0.39820    0.28540    1.000
    C120     C        0.84630    0.44800    0.31090    1.000
    C121     C        0.74990    0.43640    0.31050    1.000
    C122     C        0.24170    0.29680    0.16900    1.000
    C123     C        0.22270    0.34640    0.20260    1.000
    C124     C        0.12760    0.33220    0.21200    1.000
    C125     C        0.05660    0.27080    0.18350    1.000
    C126     C        0.08100    0.22320    0.15170    1.000
    C127     C        0.99720    0.06820    0.04900    1.000
    C128     C        0.91550    0.05580    0.02420    1.000
    C129     C        0.92150    0.10660    0.99780    1.000
    C130     C        0.01210    0.16740    0.99660    1.000
    C131     C        0.08870    0.17520    0.02530    1.000
    C132     C        0.83520    0.09700    0.96930    1.000
    C133     C        0.67410    0.03460    0.94550    1.000
    C134     C        0.77000    0.13460    0.91510    1.000
    C135     C        0.41790    0.88640    0.91600    1.000
    C136     C        0.50750    0.94540    0.91470    1.000
    C137     C        0.57750    0.96980    0.94850    1.000
    C138     C        0.55680    0.92980    0.98140    1.000
    C139     C        0.47000    0.87100    0.98030    1.000
    C140     C        0.86900    0.30540    0.85840    1.000
    C141     C        0.86210    0.25780    0.88780    1.000
    C142     C        0.78280    0.18580    0.88270    1.000
    C143     C        0.71360    0.16660    0.84760    1.000
    C144     C        0.72730    0.21620    0.81830    1.000
    I13      I        0.25632    0.69544    0.01195    1.000
    I14      I        0.14304    0.77776    0.90549    1.000
    I15      I        0.87186    0.03794    0.63383    1.000
    I16      I        0.87294    0.22638    0.56072    1.000
    I17      I        0.51115    0.47804    0.30226    1.000
    I18      I        0.46242    0.26048    0.20065    1.000
    I19      I        0.43912    0.69544    0.51195    1.000
    I20      I        0.63472    0.77776    0.40549    1.000
    I21      I        0.16608    0.03794    0.13383    1.000
    I22      I        0.35344    0.22638    0.06072    1.000
    I23      I        0.96689    0.47804    0.80226    1.000
    I24      I        0.79806    0.26048    0.70065    1.000
    N25      N        0.29730    0.66820    0.89410    1.000
    N26      N        0.42100    0.47220    0.81200    1.000
    N27      N        0.35650    0.36280    0.75200    1.000
    N28      N        0.27100    0.44280    0.77350    1.000
    N29      N        0.69220    0.37460    0.78160    1.000
    N30      N        0.06330    0.23420    0.64270    1.000
    N31      N        0.04410    0.12680    0.55170    1.000
    N32      N        0.29430    0.04220    0.47400    1.000
    N33      N        0.39690    0.07840    0.41600    1.000
    N34      N        0.29670    0.14780    0.44150    1.000
    N35      N        0.44530    0.84460    0.44820    1.000
    N36      N        0.48200    0.28440    0.32330    1.000
    N37      N        0.37090    0.66820    0.39410    1.000
    N38      N        0.05120    0.47220    0.31200    1.000
    N39      N        0.00630    0.36280    0.25200    1.000
    N40      N        0.17180    0.44280    0.27350    1.000
    N41      N        0.68240    0.37460    0.28160    1.000
    N42      N        0.17090    0.23420    0.14270    1.000
    N43      N        0.08270    0.12680    0.05170    1.000
    N44      N        0.74790    0.04220    0.97400    1.000
    N45      N        0.68150    0.07840    0.91600    1.000
    N46      N        0.85110    0.14780    0.94150    1.000
    N47      N        0.39930    0.84460    0.94820    1.000
    N48      N        0.80240    0.28440    0.82330    1.000
