# CIF file generated by openbabel 3.1.0, see https://openbabel.org
data_I
_chemical_name_common 'image0'
_cell_length_a 8.6817
_cell_length_b 34.1802
_cell_length_c 8.5822
_cell_angle_alpha 90
_cell_angle_beta 107.6
_cell_angle_gamma 90
_space_group_name_H-M_alt 'P 1'
_space_group_name_Hall 'P 1'
loop_
    _symmetry_equiv_pos_as_xyz
    x,y,z
loop_
    _atom_site_label
    _atom_site_type_symbol
    _atom_site_fract_x
    _atom_site_fract_y
    _atom_site_fract_z
    _atom_site_occupancy
    Cu1      Cu       0.74834    0.20340    0.47683    1.000
    Cu2      Cu       0.73752    0.04554    0.49820    1.000
    O1       O        0.89641    0.15347    0.60861    1.000
    O2       O        0.84718    0.09008    0.62851    1.000
    O3       O        0.62084    0.15997    0.35517    1.000
    O4       O        0.61138    0.09504    0.33491    1.000
    O5       O        0.62296    0.20571    0.63702    1.000
    O6       O        0.58458    0.24812    0.81910    1.000
    O7       O        0.87349    0.24638    0.61066    1.000
    O8       O        0.85708    0.28757    0.80574    1.000
    O9       O        0.90583    0.04100    0.38567    1.000
    O10      O        0.08819    0.00027    0.34173    1.000
    O11      O        0.56868    0.04248    0.61159    1.000
    O12      O        0.37760    0.00027    0.62768    1.000
    C1       C        0.81770    0.12321    0.56090    1.000
    C2       C        0.66950    0.12590    0.40280    1.000
    C3       C        0.80970    0.25870    0.71480    1.000
    C4       C        0.65860    0.23608    0.72750    1.000
    C5       C        0.99980    0.01144    0.42110    1.000
    C6       C        0.48450    0.01237    0.56910    1.000
    Cu3      Cu       0.25166    0.70340    0.02317    1.000
    Cu4      Cu       0.26248    0.54554    0.00180    1.000
    O13      O        0.10359    0.65347    0.89139    1.000
    O14      O        0.15282    0.59008    0.87149    1.000
    O15      O        0.37916    0.65997    0.14483    1.000
    O16      O        0.38862    0.59504    0.16509    1.000
    O17      O        0.37704    0.70571    0.86298    1.000
    O18      O        0.41542    0.74812    0.68090    1.000
    O19      O        0.12651    0.74638    0.88934    1.000
    O20      O        0.14292    0.78757    0.69426    1.000
    O21      O        0.09417    0.54100    0.11433    1.000
    O22      O        0.91181    0.50027    0.15827    1.000
    O23      O        0.43132    0.54248    0.88841    1.000
    O24      O        0.62240    0.50027    0.87232    1.000
    C7       C        0.18230    0.62321    0.93910    1.000
    C8       C        0.33050    0.62590    0.09720    1.000
    C9       C        0.19030    0.75870    0.78520    1.000
    C10      C        0.34140    0.73608    0.77250    1.000
    C11      C        0.00020    0.51144    0.07890    1.000
    C12      C        0.51550    0.51237    0.93090    1.000
    Cu5      Cu       0.25166    0.79660    0.52317    1.000
    Cu6      Cu       0.26248    0.95446    0.50180    1.000
    O25      O        0.10359    0.84653    0.39139    1.000
    O26      O        0.15282    0.90992    0.37149    1.000
    O27      O        0.37916    0.84003    0.64483    1.000
    O28      O        0.38862    0.90496    0.66509    1.000
    O29      O        0.37704    0.79429    0.36298    1.000
    O30      O        0.41542    0.75188    0.18090    1.000
    O31      O        0.12651    0.75362    0.38934    1.000
    O32      O        0.14292    0.71243    0.19426    1.000
    O33      O        0.09417    0.95900    0.61433    1.000
    O34      O        0.91181    0.99973    0.65827    1.000
    O35      O        0.43132    0.95752    0.38841    1.000
    O36      O        0.62240    0.99973    0.37232    1.000
    C13      C        0.18230    0.87679    0.43910    1.000
    C14      C        0.33050    0.87410    0.59720    1.000
    C15      C        0.19030    0.74130    0.28520    1.000
    C16      C        0.34140    0.76392    0.27250    1.000
    C17      C        0.00020    0.98856    0.57890    1.000
    C18      C        0.51550    0.98763    0.43090    1.000
    Cu7      Cu       0.74834    0.29660    0.97683    1.000
    Cu8      Cu       0.73752    0.45446    0.99820    1.000
    O37      O        0.89641    0.34653    0.10861    1.000
    O38      O        0.84718    0.40992    0.12851    1.000
    O39      O        0.62084    0.34003    0.85517    1.000
    O40      O        0.61138    0.40496    0.83491    1.000
    O41      O        0.62296    0.29429    0.13702    1.000
    O42      O        0.58458    0.25188    0.31910    1.000
    O43      O        0.87349    0.25362    0.11066    1.000
    O44      O        0.85708    0.21243    0.30574    1.000
    O45      O        0.90583    0.45900    0.88567    1.000
    O46      O        0.08819    0.49973    0.84173    1.000
    O47      O        0.56868    0.45752    0.11159    1.000
    O48      O        0.37760    0.49973    0.12768    1.000
    C19      C        0.81770    0.37679    0.06090    1.000
    C20      C        0.66950    0.37410    0.90280    1.000
    C21      C        0.80970    0.24130    0.21480    1.000
    C22      C        0.65860    0.26392    0.22750    1.000
    C23      C        0.99980    0.48856    0.92110    1.000
    C24      C        0.48450    0.48763    0.06910    1.000
