# CIF file generated by openbabel 3.1.0, see https://openbabel.org
data_I
_chemical_name_common 'image0'
_cell_length_a 30.773
_cell_length_b 9.3088
_cell_length_c 30.411
_cell_angle_alpha 90
_cell_angle_beta 111.272
_cell_angle_gamma 90
_space_group_name_H-M_alt 'P 1'
_space_group_name_Hall 'P 1'
loop_
    _symmetry_equiv_pos_as_xyz
    x,y,z
loop_
    _atom_site_label
    _atom_site_type_symbol
    _atom_site_fract_x
    _atom_site_fract_y
    _atom_site_fract_z
    _atom_site_occupancy
    Tb1      Tb       0.24487    0.95471    0.47780    1.000
    C1       C        0.31810    0.24360    0.52020    1.000
    C2       C        0.36530    0.26990    0.51750    1.000
    C3       C        0.38130    0.17950    0.48980    1.000
    H1       H        0.36360    0.10060    0.47480    1.000
    C4       C        0.42300    0.20740    0.48490    1.000
    H2       H        0.43220    0.15240    0.46420    1.000
    C5       C        0.45230    0.31890    0.51090    1.000
    H3       H        0.48140    0.33560    0.50900    1.000
    C6       C        0.43600    0.40220    0.53940    1.000
    C7       C        0.39300    0.38350    0.54170    1.000
    H4       H        0.38230    0.44610    0.55940    1.000
    C8       C        0.67630    0.75170    0.92210    1.000
    C9       C        0.63640    0.84060    0.89050    1.000
    C10      C        0.61440    0.79430    0.84360    1.000
    H5       H        0.62440    0.71160    0.83300    1.000
    C11      C        0.57710    0.87460    0.81330    1.000
    C12      C        0.56240    0.99710    0.83010    1.000
    H6       H        0.53840    0.05220    0.80950    1.000
    C13      C        0.58210    0.03800    0.87560    1.000
    H7       H        0.57040    0.11600    0.88690    1.000
    C14      C        0.62050    0.96060    0.90560    1.000
    H8       H        0.63560    0.99170    0.93650    1.000
    C15      C        0.69030    0.30430    0.54490    1.000
    C16      C        0.65040    0.32080    0.56240    1.000
    C17      C        0.63330    0.45440    0.56850    1.000
    H9       H        0.64680    0.53740    0.56200    1.000
    C18      C        0.59740    0.46410    0.58360    1.000
    H10      H        0.58700    0.55470    0.58820    1.000
    C19      C        0.57500    0.34120    0.59280    1.000
    H11      H        0.54980    0.34880    0.60270    1.000
    C20      C        0.59270    0.20670    0.58620    1.000
    C21      C        0.62970    0.19800    0.57180    1.000
    H12      H        0.64120    0.10820    0.56820    1.000
    C22      C        0.44950    0.61200    0.58830    1.000
    H13      H        0.43620    0.56320    0.60860    1.000
    H14      H        0.42530    0.66890    0.56560    1.000
    C23      C        0.57440    0.74260    0.74430    1.000
    H15      H        0.57010    0.64390    0.75220    1.000
    H16      H        0.60750    0.76130    0.75310    1.000
    C24      C        0.53520    0.08080    0.60840    1.000
    H17      H        0.50730    0.10660    0.58190    1.000
    H18      H        0.53970    0.15110    0.63320    1.000
    C25      C        0.48910    0.70790    0.61730    1.000
    C26      C        0.51510    0.67200    0.66360    1.000
    C27      C        0.54800    0.77200    0.69160    1.000
    C28      C        0.55540    0.90000    0.67310    1.000
    C29      C        0.52970    0.93480    0.62580    1.000
    C30      C        0.49680    0.83700    0.59740    1.000
    C31      C        0.50680    0.53060    0.68370    1.000
    H19      H        0.48800    0.54640    0.70250    1.000
    H20      H        0.53620    0.48980    0.70310    1.000
    H21      H        0.49100    0.46570    0.65850    1.000
    C32      C        0.59190    0.00570    0.70350    1.000
    H22      H        0.60110    0.06900    0.68350    1.000
    H23      H        0.61860    0.95370    0.72370    1.000
    H24      H        0.57890    0.06100    0.72240    1.000
    C33      C        0.46970    0.87120    0.54600    1.000
    H25      H        0.48630    0.94210    0.53530    1.000
    H26      H        0.43950    0.90770    0.54270    1.000
    H27      H        0.46620    0.78550    0.52750    1.000
    O1       O        0.30150    0.12170    0.50950    1.000
    O2       O        0.30090    0.34370    0.53440    1.000
    O3       O        0.67910    0.62630    0.91310    1.000
    O4       O        0.70630    0.81100    0.95900    1.000
    O5       O        0.70100    0.41320    0.52590    1.000
    O6       O        0.70890    0.18650    0.55080    1.000
    O7       O        0.46740    0.51010    0.56460    1.000
    O8       O        0.55350    0.84150    0.76750    1.000
    O9       O        0.57490    0.07950    0.59410    1.000
    Tb2      Tb       0.74487    0.45471    0.47780    1.000
    C34      C        0.81810    0.74360    0.52020    1.000
    C35      C        0.86530    0.76990    0.51750    1.000
    C36      C        0.88130    0.67950    0.48980    1.000
    H28      H        0.86360    0.60060    0.47480    1.000
    C37      C        0.92300    0.70740    0.48490    1.000
    H29      H        0.93220    0.65240    0.46420    1.000
    C38      C        0.95230    0.81890    0.51090    1.000
    H30      H        0.98140    0.83560    0.50900    1.000
    C39      C        0.93600    0.90220    0.53940    1.000
    C40      C        0.89300    0.88350    0.54170    1.000
    H31      H        0.88230    0.94610    0.55940    1.000
    C41      C        0.17630    0.25170    0.92210    1.000
    C42      C        0.13640    0.34060    0.89050    1.000
    C43      C        0.11440    0.29430    0.84360    1.000
    H32      H        0.12440    0.21160    0.83300    1.000
    C44      C        0.07710    0.37460    0.81330    1.000
    C45      C        0.06240    0.49710    0.83010    1.000
    H33      H        0.03840    0.55220    0.80950    1.000
    C46      C        0.08210    0.53800    0.87560    1.000
    H34      H        0.07040    0.61600    0.88690    1.000
    C47      C        0.12050    0.46060    0.90560    1.000
    H35      H        0.13560    0.49170    0.93650    1.000
    C48      C        0.19030    0.80430    0.54490    1.000
    C49      C        0.15040    0.82080    0.56240    1.000
    C50      C        0.13330    0.95440    0.56850    1.000
    H36      H        0.14680    0.03740    0.56200    1.000
    C51      C        0.09740    0.96410    0.58360    1.000
    H37      H        0.08700    0.05470    0.58820    1.000
    C52      C        0.07500    0.84120    0.59280    1.000
    H38      H        0.04980    0.84880    0.60270    1.000
    C53      C        0.09270    0.70670    0.58620    1.000
    C54      C        0.12970    0.69800    0.57180    1.000
    H39      H        0.14120    0.60820    0.56820    1.000
    C55      C        0.94950    0.11200    0.58830    1.000
    H40      H        0.93620    0.06320    0.60860    1.000
    H41      H        0.92530    0.16890    0.56560    1.000
    C56      C        0.07440    0.24260    0.74430    1.000
    H42      H        0.07010    0.14390    0.75220    1.000
    H43      H        0.10750    0.26130    0.75310    1.000
    C57      C        0.03520    0.58080    0.60840    1.000
    H44      H        0.00730    0.60660    0.58190    1.000
    H45      H        0.03970    0.65110    0.63320    1.000
    C58      C        0.98910    0.20790    0.61730    1.000
    C59      C        0.01510    0.17200    0.66360    1.000
    C60      C        0.04800    0.27200    0.69160    1.000
    C61      C        0.05540    0.40000    0.67310    1.000
    C62      C        0.02970    0.43480    0.62580    1.000
    C63      C        0.99680    0.33700    0.59740    1.000
    C64      C        0.00680    0.03060    0.68370    1.000
    H46      H        0.98800    0.04640    0.70250    1.000
    H47      H        0.03620    0.98980    0.70310    1.000
    H48      H        0.99100    0.96570    0.65850    1.000
    C65      C        0.09190    0.50570    0.70350    1.000
    H49      H        0.10110    0.56900    0.68350    1.000
    H50      H        0.11860    0.45370    0.72370    1.000
    H51      H        0.07890    0.56100    0.72240    1.000
    C66      C        0.96970    0.37120    0.54600    1.000
    H52      H        0.98630    0.44210    0.53530    1.000
    H53      H        0.93950    0.40770    0.54270    1.000
    H54      H        0.96620    0.28550    0.52750    1.000
    O10      O        0.80150    0.62170    0.50950    1.000
    O11      O        0.80090    0.84370    0.53440    1.000
    O12      O        0.17910    0.12630    0.91310    1.000
    O13      O        0.20630    0.31100    0.95900    1.000
    O14      O        0.20100    0.91320    0.52590    1.000
    O15      O        0.20890    0.68650    0.55080    1.000
    O16      O        0.96740    0.01010    0.56460    1.000
    O17      O        0.05350    0.34150    0.76750    1.000
    O18      O        0.07490    0.57950    0.59410    1.000
    Tb3      Tb       0.75513    0.95471    0.02220    1.000
    C67      C        0.68190    0.24360    0.97980    1.000
    C68      C        0.63470    0.26990    0.98250    1.000
    C69      C        0.61870    0.17950    0.01020    1.000
    H55      H        0.63640    0.10060    0.02520    1.000
    C70      C        0.57700    0.20740    0.01510    1.000
    H56      H        0.56780    0.15240    0.03580    1.000
    C71      C        0.54770    0.31890    0.98910    1.000
    H57      H        0.51860    0.33560    0.99100    1.000
    C72      C        0.56400    0.40220    0.96060    1.000
    C73      C        0.60700    0.38350    0.95830    1.000
    H58      H        0.61770    0.44610    0.94060    1.000
    C74      C        0.32370    0.75170    0.57790    1.000
    C75      C        0.36360    0.84060    0.60950    1.000
    C76      C        0.38560    0.79430    0.65640    1.000
    H59      H        0.37560    0.71160    0.66700    1.000
    C77      C        0.42290    0.87460    0.68670    1.000
    C78      C        0.43760    0.99710    0.66990    1.000
    H60      H        0.46160    0.05220    0.69050    1.000
    C79      C        0.41790    0.03800    0.62440    1.000
    H61      H        0.42960    0.11600    0.61310    1.000
    C80      C        0.37950    0.96060    0.59440    1.000
    H62      H        0.36440    0.99170    0.56350    1.000
    C81      C        0.30970    0.30430    0.95510    1.000
    C82      C        0.34960    0.32080    0.93760    1.000
    C83      C        0.36670    0.45440    0.93150    1.000
    H63      H        0.35320    0.53740    0.93800    1.000
    C84      C        0.40260    0.46410    0.91640    1.000
    H64      H        0.41300    0.55470    0.91180    1.000
    C85      C        0.42500    0.34120    0.90720    1.000
    H65      H        0.45020    0.34880    0.89730    1.000
    C86      C        0.40730    0.20670    0.91380    1.000
    C87      C        0.37030    0.19800    0.92820    1.000
    H66      H        0.35880    0.10820    0.93180    1.000
    C88      C        0.55050    0.61200    0.91170    1.000
    H67      H        0.56380    0.56320    0.89140    1.000
    H68      H        0.57470    0.66890    0.93440    1.000
    C89      C        0.42560    0.74260    0.75570    1.000
    H69      H        0.42990    0.64390    0.74780    1.000
    H70      H        0.39250    0.76130    0.74690    1.000
    C90      C        0.46480    0.08080    0.89160    1.000
    H71      H        0.49270    0.10660    0.91810    1.000
    H72      H        0.46030    0.15110    0.86680    1.000
    C91      C        0.51090    0.70790    0.88270    1.000
    C92      C        0.48490    0.67200    0.83640    1.000
    C93      C        0.45200    0.77200    0.80840    1.000
    C94      C        0.44460    0.90000    0.82690    1.000
    C95      C        0.47030    0.93480    0.87420    1.000
    C96      C        0.50320    0.83700    0.90260    1.000
    C97      C        0.49320    0.53060    0.81630    1.000
    H73      H        0.51200    0.54640    0.79750    1.000
    H74      H        0.46380    0.48980    0.79690    1.000
    H75      H        0.50900    0.46570    0.84150    1.000
    C98      C        0.40810    0.00570    0.79650    1.000
    H76      H        0.39890    0.06900    0.81650    1.000
    H77      H        0.38140    0.95370    0.77630    1.000
    H78      H        0.42110    0.06100    0.77760    1.000
    C99      C        0.53030    0.87120    0.95400    1.000
    H79      H        0.51370    0.94210    0.96470    1.000
    H80      H        0.56050    0.90770    0.95730    1.000
    H81      H        0.53380    0.78550    0.97250    1.000
    O19      O        0.69850    0.12170    0.99050    1.000
    O20      O        0.69910    0.34370    0.96560    1.000
    O21      O        0.32090    0.62630    0.58690    1.000
    O22      O        0.29370    0.81100    0.54100    1.000
    O23      O        0.29900    0.41320    0.97410    1.000
    O24      O        0.29110    0.18650    0.94920    1.000
    O25      O        0.53260    0.51010    0.93540    1.000
    O26      O        0.44650    0.84150    0.73250    1.000
    O27      O        0.42510    0.07950    0.90590    1.000
    Tb4      Tb       0.25513    0.45471    0.02220    1.000
    C100     C        0.18190    0.74360    0.97980    1.000
    C101     C        0.13470    0.76990    0.98250    1.000
    C102     C        0.11870    0.67950    0.01020    1.000
    H82      H        0.13640    0.60060    0.02520    1.000
    C103     C        0.07700    0.70740    0.01510    1.000
    H83      H        0.06780    0.65240    0.03580    1.000
    C104     C        0.04770    0.81890    0.98910    1.000
    H84      H        0.01860    0.83560    0.99100    1.000
    C105     C        0.06400    0.90220    0.96060    1.000
    C106     C        0.10700    0.88350    0.95830    1.000
    H85      H        0.11770    0.94610    0.94060    1.000
    C107     C        0.82370    0.25170    0.57790    1.000
    C108     C        0.86360    0.34060    0.60950    1.000
    C109     C        0.88560    0.29430    0.65640    1.000
    H86      H        0.87560    0.21160    0.66700    1.000
    C110     C        0.92290    0.37460    0.68670    1.000
    C111     C        0.93760    0.49710    0.66990    1.000
    H87      H        0.96160    0.55220    0.69050    1.000
    C112     C        0.91790    0.53800    0.62440    1.000
    H88      H        0.92960    0.61600    0.61310    1.000
    C113     C        0.87950    0.46060    0.59440    1.000
    H89      H        0.86440    0.49170    0.56350    1.000
    C114     C        0.80970    0.80430    0.95510    1.000
    C115     C        0.84960    0.82080    0.93760    1.000
    C116     C        0.86670    0.95440    0.93150    1.000
    H90      H        0.85320    0.03740    0.93800    1.000
    C117     C        0.90260    0.96410    0.91640    1.000
    H91      H        0.91300    0.05470    0.91180    1.000
    C118     C        0.92500    0.84120    0.90720    1.000
    H92      H        0.95020    0.84880    0.89730    1.000
    C119     C        0.90730    0.70670    0.91380    1.000
    C120     C        0.87030    0.69800    0.92820    1.000
    H93      H        0.85880    0.60820    0.93180    1.000
    C121     C        0.05050    0.11200    0.91170    1.000
    H94      H        0.06380    0.06320    0.89140    1.000
    H95      H        0.07470    0.16890    0.93440    1.000
    C122     C        0.92560    0.24260    0.75570    1.000
    H96      H        0.92990    0.14390    0.74780    1.000
    H97      H        0.89250    0.26130    0.74690    1.000
    C123     C        0.96480    0.58080    0.89160    1.000
    H98      H        0.99270    0.60660    0.91810    1.000
    H99      H        0.96030    0.65110    0.86680    1.000
    C124     C        0.01090    0.20790    0.88270    1.000
    C125     C        0.98490    0.17200    0.83640    1.000
    C126     C        0.95200    0.27200    0.80840    1.000
    C127     C        0.94460    0.40000    0.82690    1.000
    C128     C        0.97030    0.43480    0.87420    1.000
    C129     C        0.00320    0.33700    0.90260    1.000
    C130     C        0.99320    0.03060    0.81630    1.000
    H100     H        0.01200    0.04640    0.79750    1.000
    H101     H        0.96380    0.98980    0.79690    1.000
    H102     H        0.00900    0.96570    0.84150    1.000
    C131     C        0.90810    0.50570    0.79650    1.000
    H103     H        0.89890    0.56900    0.81650    1.000
    H104     H        0.88140    0.45370    0.77630    1.000
    H105     H        0.92110    0.56100    0.77760    1.000
    C132     C        0.03030    0.37120    0.95400    1.000
    H106     H        0.01370    0.44210    0.96470    1.000
    H107     H        0.06050    0.40770    0.95730    1.000
    H108     H        0.03380    0.28550    0.97250    1.000
    O28      O        0.19850    0.62170    0.99050    1.000
    O29      O        0.19910    0.84370    0.96560    1.000
    O30      O        0.82090    0.12630    0.58690    1.000
    O31      O        0.79370    0.31100    0.54100    1.000
    O32      O        0.79900    0.91320    0.97410    1.000
    O33      O        0.79110    0.68650    0.94920    1.000
    O34      O        0.03260    0.01010    0.93540    1.000
    O35      O        0.94650    0.34150    0.73250    1.000
    O36      O        0.92510    0.57950    0.90590    1.000
    Tb5      Tb       0.75513    0.04529    0.52220    1.000
    C133     C        0.68190    0.75640    0.47980    1.000
    C134     C        0.63470    0.73010    0.48250    1.000
    C135     C        0.61870    0.82050    0.51020    1.000
    H109     H        0.63640    0.89940    0.52520    1.000
    C136     C        0.57700    0.79260    0.51510    1.000
    H110     H        0.56780    0.84760    0.53580    1.000
    C137     C        0.54770    0.68110    0.48910    1.000
    H111     H        0.51860    0.66440    0.49100    1.000
    C138     C        0.56400    0.59780    0.46060    1.000
    C139     C        0.60700    0.61650    0.45830    1.000
    H112     H        0.61770    0.55390    0.44060    1.000
    C140     C        0.32370    0.24830    0.07790    1.000
    C141     C        0.36360    0.15940    0.10950    1.000
    C142     C        0.38560    0.20570    0.15640    1.000
    H113     H        0.37560    0.28840    0.16700    1.000
    C143     C        0.42290    0.12540    0.18670    1.000
    C144     C        0.43760    0.00290    0.16990    1.000
    H114     H        0.46160    0.94780    0.19050    1.000
    C145     C        0.41790    0.96200    0.12440    1.000
    H115     H        0.42960    0.88400    0.11310    1.000
    C146     C        0.37950    0.03940    0.09440    1.000
    H116     H        0.36440    0.00830    0.06350    1.000
    C147     C        0.30970    0.69570    0.45510    1.000
    C148     C        0.34960    0.67920    0.43760    1.000
    C149     C        0.36670    0.54560    0.43150    1.000
    H117     H        0.35320    0.46260    0.43800    1.000
    C150     C        0.40260    0.53590    0.41640    1.000
    H118     H        0.41300    0.44530    0.41180    1.000
    C151     C        0.42500    0.65880    0.40720    1.000
    H119     H        0.45020    0.65120    0.39730    1.000
    C152     C        0.40730    0.79330    0.41380    1.000
    C153     C        0.37030    0.80200    0.42820    1.000
    H120     H        0.35880    0.89180    0.43180    1.000
    C154     C        0.55050    0.38800    0.41170    1.000
    H121     H        0.56380    0.43680    0.39140    1.000
    H122     H        0.57470    0.33110    0.43440    1.000
    C155     C        0.42560    0.25740    0.25570    1.000
    H123     H        0.42990    0.35610    0.24780    1.000
    H124     H        0.39250    0.23870    0.24690    1.000
    C156     C        0.46480    0.91920    0.39160    1.000
    H125     H        0.49270    0.89340    0.41810    1.000
    H126     H        0.46030    0.84890    0.36680    1.000
    C157     C        0.51090    0.29210    0.38270    1.000
    C158     C        0.48490    0.32800    0.33640    1.000
    C159     C        0.45200    0.22800    0.30840    1.000
    C160     C        0.44460    0.10000    0.32690    1.000
    C161     C        0.47030    0.06520    0.37420    1.000
    C162     C        0.50320    0.16300    0.40260    1.000
    C163     C        0.49320    0.46940    0.31630    1.000
    H127     H        0.51200    0.45360    0.29750    1.000
    H128     H        0.46380    0.51020    0.29690    1.000
    H129     H        0.50900    0.53430    0.34150    1.000
    C164     C        0.40810    0.99430    0.29650    1.000
    H130     H        0.39890    0.93100    0.31650    1.000
    H131     H        0.38140    0.04630    0.27630    1.000
    H132     H        0.42110    0.93900    0.27760    1.000
    C165     C        0.53030    0.12880    0.45400    1.000
    H133     H        0.51370    0.05790    0.46470    1.000
    H134     H        0.56050    0.09230    0.45730    1.000
    H135     H        0.53380    0.21450    0.47250    1.000
    O37      O        0.69850    0.87830    0.49050    1.000
    O38      O        0.69910    0.65630    0.46560    1.000
    O39      O        0.32090    0.37370    0.08690    1.000
    O40      O        0.29370    0.18900    0.04100    1.000
    O41      O        0.29900    0.58680    0.47410    1.000
    O42      O        0.29110    0.81350    0.44920    1.000
    O43      O        0.53260    0.48990    0.43540    1.000
    O44      O        0.44650    0.15850    0.23250    1.000
    O45      O        0.42510    0.92050    0.40590    1.000
    Tb6      Tb       0.25513    0.54529    0.52220    1.000
    C166     C        0.18190    0.25640    0.47980    1.000
    C167     C        0.13470    0.23010    0.48250    1.000
    C168     C        0.11870    0.32050    0.51020    1.000
    H136     H        0.13640    0.39940    0.52520    1.000
    C169     C        0.07700    0.29260    0.51510    1.000
    H137     H        0.06780    0.34760    0.53580    1.000
    C170     C        0.04770    0.18110    0.48910    1.000
    H138     H        0.01860    0.16440    0.49100    1.000
    C171     C        0.06400    0.09780    0.46060    1.000
    C172     C        0.10700    0.11650    0.45830    1.000
    H139     H        0.11770    0.05390    0.44060    1.000
    C173     C        0.82370    0.74830    0.07790    1.000
    C174     C        0.86360    0.65940    0.10950    1.000
    C175     C        0.88560    0.70570    0.15640    1.000
    H140     H        0.87560    0.78840    0.16700    1.000
    C176     C        0.92290    0.62540    0.18670    1.000
    C177     C        0.93760    0.50290    0.16990    1.000
    H141     H        0.96160    0.44780    0.19050    1.000
    C178     C        0.91790    0.46200    0.12440    1.000
    H142     H        0.92960    0.38400    0.11310    1.000
    C179     C        0.87950    0.53940    0.09440    1.000
    H143     H        0.86440    0.50830    0.06350    1.000
    C180     C        0.80970    0.19570    0.45510    1.000
    C181     C        0.84960    0.17920    0.43760    1.000
    C182     C        0.86670    0.04560    0.43150    1.000
    H144     H        0.85320    0.96260    0.43800    1.000
    C183     C        0.90260    0.03590    0.41640    1.000
    H145     H        0.91300    0.94530    0.41180    1.000
    C184     C        0.92500    0.15880    0.40720    1.000
    H146     H        0.95020    0.15120    0.39730    1.000
    C185     C        0.90730    0.29330    0.41380    1.000
    C186     C        0.87030    0.30200    0.42820    1.000
    H147     H        0.85880    0.39180    0.43180    1.000
    C187     C        0.05050    0.88800    0.41170    1.000
    H148     H        0.06380    0.93680    0.39140    1.000
    H149     H        0.07470    0.83110    0.43440    1.000
    C188     C        0.92560    0.75740    0.25570    1.000
    H150     H        0.92990    0.85610    0.24780    1.000
    H151     H        0.89250    0.73870    0.24690    1.000
    C189     C        0.96480    0.41920    0.39160    1.000
    H152     H        0.99270    0.39340    0.41810    1.000
    H153     H        0.96030    0.34890    0.36680    1.000
    C190     C        0.01090    0.79210    0.38270    1.000
    C191     C        0.98490    0.82800    0.33640    1.000
    C192     C        0.95200    0.72800    0.30840    1.000
    C193     C        0.94460    0.60000    0.32690    1.000
    C194     C        0.97030    0.56520    0.37420    1.000
    C195     C        0.00320    0.66300    0.40260    1.000
    C196     C        0.99320    0.96940    0.31630    1.000
    H154     H        0.01200    0.95360    0.29750    1.000
    H155     H        0.96380    0.01020    0.29690    1.000
    H156     H        0.00900    0.03430    0.34150    1.000
    C197     C        0.90810    0.49430    0.29650    1.000
    H157     H        0.89890    0.43100    0.31650    1.000
    H158     H        0.88140    0.54630    0.27630    1.000
    H159     H        0.92110    0.43900    0.27760    1.000
    C198     C        0.03030    0.62880    0.45400    1.000
    H160     H        0.01370    0.55790    0.46470    1.000
    H161     H        0.06050    0.59230    0.45730    1.000
    H162     H        0.03380    0.71450    0.47250    1.000
    O46      O        0.19850    0.37830    0.49050    1.000
    O47      O        0.19910    0.15630    0.46560    1.000
    O48      O        0.82090    0.87370    0.08690    1.000
    O49      O        0.79370    0.68900    0.04100    1.000
    O50      O        0.79900    0.08680    0.47410    1.000
    O51      O        0.79110    0.31350    0.44920    1.000
    O52      O        0.03260    0.98990    0.43540    1.000
    O53      O        0.94650    0.65850    0.23250    1.000
    O54      O        0.92510    0.42050    0.40590    1.000
    Tb7      Tb       0.24487    0.04529    0.97780    1.000
    C199     C        0.31810    0.75640    0.02020    1.000
    C200     C        0.36530    0.73010    0.01750    1.000
    C201     C        0.38130    0.82050    0.98980    1.000
    H163     H        0.36360    0.89940    0.97480    1.000
    C202     C        0.42300    0.79260    0.98490    1.000
    H164     H        0.43220    0.84760    0.96420    1.000
    C203     C        0.45230    0.68110    0.01090    1.000
    H165     H        0.48140    0.66440    0.00900    1.000
    C204     C        0.43600    0.59780    0.03940    1.000
    C205     C        0.39300    0.61650    0.04170    1.000
    H166     H        0.38230    0.55390    0.05940    1.000
    C206     C        0.67630    0.24830    0.42210    1.000
    C207     C        0.63640    0.15940    0.39050    1.000
    C208     C        0.61440    0.20570    0.34360    1.000
    H167     H        0.62440    0.28840    0.33300    1.000
    C209     C        0.57710    0.12540    0.31330    1.000
    C210     C        0.56240    0.00290    0.33010    1.000
    H168     H        0.53840    0.94780    0.30950    1.000
    C211     C        0.58210    0.96200    0.37560    1.000
    H169     H        0.57040    0.88400    0.38690    1.000
    C212     C        0.62050    0.03940    0.40560    1.000
    H170     H        0.63560    0.00830    0.43650    1.000
    C213     C        0.69030    0.69570    0.04490    1.000
    C214     C        0.65040    0.67920    0.06240    1.000
    C215     C        0.63330    0.54560    0.06850    1.000
    H171     H        0.64680    0.46260    0.06200    1.000
    C216     C        0.59740    0.53590    0.08360    1.000
    H172     H        0.58700    0.44530    0.08820    1.000
    C217     C        0.57500    0.65880    0.09280    1.000
    H173     H        0.54980    0.65120    0.10270    1.000
    C218     C        0.59270    0.79330    0.08620    1.000
    C219     C        0.62970    0.80200    0.07180    1.000
    H174     H        0.64120    0.89180    0.06820    1.000
    C220     C        0.44950    0.38800    0.08830    1.000
    H175     H        0.43620    0.43680    0.10860    1.000
    H176     H        0.42530    0.33110    0.06560    1.000
    C221     C        0.57440    0.25740    0.24430    1.000
    H177     H        0.57010    0.35610    0.25220    1.000
    H178     H        0.60750    0.23870    0.25310    1.000
    C222     C        0.53520    0.91920    0.10840    1.000
    H179     H        0.50730    0.89340    0.08190    1.000
    H180     H        0.53970    0.84890    0.13320    1.000
    C223     C        0.48910    0.29210    0.11730    1.000
    C224     C        0.51510    0.32800    0.16360    1.000
    C225     C        0.54800    0.22800    0.19160    1.000
    C226     C        0.55540    0.10000    0.17310    1.000
    C227     C        0.52970    0.06520    0.12580    1.000
    C228     C        0.49680    0.16300    0.09740    1.000
    C229     C        0.50680    0.46940    0.18370    1.000
    H181     H        0.48800    0.45360    0.20250    1.000
    H182     H        0.53620    0.51020    0.20310    1.000
    H183     H        0.49100    0.53430    0.15850    1.000
    C230     C        0.59190    0.99430    0.20350    1.000
    H184     H        0.60110    0.93100    0.18350    1.000
    H185     H        0.61860    0.04630    0.22370    1.000
    H186     H        0.57890    0.93900    0.22240    1.000
    C231     C        0.46970    0.12880    0.04600    1.000
    H187     H        0.48630    0.05790    0.03530    1.000
    H188     H        0.43950    0.09230    0.04270    1.000
    H189     H        0.46620    0.21450    0.02750    1.000
    O55      O        0.30150    0.87830    0.00950    1.000
    O56      O        0.30090    0.65630    0.03440    1.000
    O57      O        0.67910    0.37370    0.41310    1.000
    O58      O        0.70630    0.18900    0.45900    1.000
    O59      O        0.70100    0.58680    0.02590    1.000
    O60      O        0.70890    0.81350    0.05080    1.000
    O61      O        0.46740    0.48990    0.06460    1.000
    O62      O        0.55350    0.15850    0.26750    1.000
    O63      O        0.57490    0.92050    0.09410    1.000
    Tb8      Tb       0.74487    0.54529    0.97780    1.000
    C232     C        0.81810    0.25640    0.02020    1.000
    C233     C        0.86530    0.23010    0.01750    1.000
    C234     C        0.88130    0.32050    0.98980    1.000
    H190     H        0.86360    0.39940    0.97480    1.000
    C235     C        0.92300    0.29260    0.98490    1.000
    H191     H        0.93220    0.34760    0.96420    1.000
    C236     C        0.95230    0.18110    0.01090    1.000
    H192     H        0.98140    0.16440    0.00900    1.000
    C237     C        0.93600    0.09780    0.03940    1.000
    C238     C        0.89300    0.11650    0.04170    1.000
    H193     H        0.88230    0.05390    0.05940    1.000
    C239     C        0.17630    0.74830    0.42210    1.000
    C240     C        0.13640    0.65940    0.39050    1.000
    C241     C        0.11440    0.70570    0.34360    1.000
    H194     H        0.12440    0.78840    0.33300    1.000
    C242     C        0.07710    0.62540    0.31330    1.000
    C243     C        0.06240    0.50290    0.33010    1.000
    H195     H        0.03840    0.44780    0.30950    1.000
    C244     C        0.08210    0.46200    0.37560    1.000
    H196     H        0.07040    0.38400    0.38690    1.000
    C245     C        0.12050    0.53940    0.40560    1.000
    H197     H        0.13560    0.50830    0.43650    1.000
    C246     C        0.19030    0.19570    0.04490    1.000
    C247     C        0.15040    0.17920    0.06240    1.000
    C248     C        0.13330    0.04560    0.06850    1.000
    H198     H        0.14680    0.96260    0.06200    1.000
    C249     C        0.09740    0.03590    0.08360    1.000
    H199     H        0.08700    0.94530    0.08820    1.000
    C250     C        0.07500    0.15880    0.09280    1.000
    H200     H        0.04980    0.15120    0.10270    1.000
    C251     C        0.09270    0.29330    0.08620    1.000
    C252     C        0.12970    0.30200    0.07180    1.000
    H201     H        0.14120    0.39180    0.06820    1.000
    C253     C        0.94950    0.88800    0.08830    1.000
    H202     H        0.93620    0.93680    0.10860    1.000
    H203     H        0.92530    0.83110    0.06560    1.000
    C254     C        0.07440    0.75740    0.24430    1.000
    H204     H        0.07010    0.85610    0.25220    1.000
    H205     H        0.10750    0.73870    0.25310    1.000
    C255     C        0.03520    0.41920    0.10840    1.000
    H206     H        0.00730    0.39340    0.08190    1.000
    H207     H        0.03970    0.34890    0.13320    1.000
    C256     C        0.98910    0.79210    0.11730    1.000
    C257     C        0.01510    0.82800    0.16360    1.000
    C258     C        0.04800    0.72800    0.19160    1.000
    C259     C        0.05540    0.60000    0.17310    1.000
    C260     C        0.02970    0.56520    0.12580    1.000
    C261     C        0.99680    0.66300    0.09740    1.000
    C262     C        0.00680    0.96940    0.18370    1.000
    H208     H        0.98800    0.95360    0.20250    1.000
    H209     H        0.03620    0.01020    0.20310    1.000
    H210     H        0.99100    0.03430    0.15850    1.000
    C263     C        0.09190    0.49430    0.20350    1.000
    H211     H        0.10110    0.43100    0.18350    1.000
    H212     H        0.11860    0.54630    0.22370    1.000
    H213     H        0.07890    0.43900    0.22240    1.000
    C264     C        0.96970    0.62880    0.04600    1.000
    H214     H        0.98630    0.55790    0.03530    1.000
    H215     H        0.93950    0.59230    0.04270    1.000
    H216     H        0.96620    0.71450    0.02750    1.000
    O64      O        0.80150    0.37830    0.00950    1.000
    O65      O        0.80090    0.15630    0.03440    1.000
    O66      O        0.17910    0.87370    0.41310    1.000
    O67      O        0.20630    0.68900    0.45900    1.000
    O68      O        0.20100    0.08680    0.02590    1.000
    O69      O        0.20890    0.31350    0.05080    1.000
    O70      O        0.96740    0.98990    0.06460    1.000
    O71      O        0.05350    0.65850    0.26750    1.000
    O72      O        0.07490    0.42050    0.09410    1.000
