# CIF file generated by openbabel 3.1.0, see https://openbabel.org
data_I
_chemical_name_common 'image0'
_cell_length_a 8.7979
_cell_length_b 33.8187
_cell_length_c 8.7622
_cell_angle_alpha 90
_cell_angle_beta 107.854
_cell_angle_gamma 90
_space_group_name_H-M_alt 'P 1'
_space_group_name_Hall 'P 1'
loop_
    _symmetry_equiv_pos_as_xyz
    x,y,z
loop_
    _atom_site_label
    _atom_site_type_symbol
    _atom_site_fract_x
    _atom_site_fract_y
    _atom_site_fract_z
    _atom_site_occupancy
    C1       C        0.81960    0.12383    0.56910    1.000
    C2       C        0.67100    0.12597    0.41610    1.000
    C3       C        0.81580    0.25912    0.73310    1.000
    C4       C        0.66640    0.23720    0.74680    1.000
    C5       C        0.00210    0.01077    0.42200    1.000
    C6       C        0.48710    0.01150    0.57140    1.000
    O1       O        0.88993    0.15510    0.61907    1.000
    O2       O        0.85668    0.09043    0.63020    1.000
    O3       O        0.62021    0.15971    0.36989    1.000
    O4       O        0.61551    0.09432    0.35288    1.000
    O5       O        0.62239    0.20762    0.65579    1.000
    O6       O        0.59900    0.24974    0.84110    1.000
    O7       O        0.87709    0.24610    0.63158    1.000
    O8       O        0.86480    0.28771    0.82334    1.000
    O9       O        0.91023    0.04012    0.38088    1.000
    O10      O        0.09180    0.99826    0.34983    1.000
    O11      O        0.57397    0.04085    0.62043    1.000
    O12      O        0.38157    0.99874    0.62686    1.000
    Cu1      Cu       0.74942    0.20387    0.49238    1.000
    Cu2      Cu       0.74183    0.04577    0.50107    1.000
    C7       C        0.18040    0.62383    0.93090    1.000
    C8       C        0.32900    0.62597    0.08390    1.000
    C9       C        0.18420    0.75912    0.76690    1.000
    C10      C        0.33360    0.73720    0.75320    1.000
    C11      C        0.99790    0.51077    0.07800    1.000
    C12      C        0.51290    0.51150    0.92860    1.000
    O13      O        0.11007    0.65510    0.88093    1.000
    O14      O        0.14332    0.59043    0.86980    1.000
    O15      O        0.37979    0.65971    0.13011    1.000
    O16      O        0.38449    0.59432    0.14712    1.000
    O17      O        0.37761    0.70762    0.84421    1.000
    O18      O        0.40100    0.74974    0.65890    1.000
    O19      O        0.12291    0.74610    0.86842    1.000
    O20      O        0.13520    0.78771    0.67666    1.000
    O21      O        0.08977    0.54012    0.11912    1.000
    O22      O        0.90820    0.49826    0.15017    1.000
    O23      O        0.42603    0.54085    0.87957    1.000
    O24      O        0.61843    0.49874    0.87314    1.000
    Cu3      Cu       0.25058    0.70387    0.00762    1.000
    Cu4      Cu       0.25817    0.54577    0.99893    1.000
    C13      C        0.18040    0.87617    0.43090    1.000
    C14      C        0.32900    0.87403    0.58390    1.000
    C15      C        0.18420    0.74088    0.26690    1.000
    C16      C        0.33360    0.76280    0.25320    1.000
    C17      C        0.99790    0.98923    0.57800    1.000
    C18      C        0.51290    0.98850    0.42860    1.000
    O25      O        0.11007    0.84490    0.38093    1.000
    O26      O        0.14332    0.90957    0.36980    1.000
    O27      O        0.37979    0.84029    0.63011    1.000
    O28      O        0.38449    0.90568    0.64712    1.000
    O29      O        0.37761    0.79238    0.34421    1.000
    O30      O        0.40100    0.75026    0.15890    1.000
    O31      O        0.12291    0.75390    0.36842    1.000
    O32      O        0.13520    0.71229    0.17666    1.000
    O33      O        0.08977    0.95988    0.61912    1.000
    O34      O        0.90820    0.00174    0.65017    1.000
    O35      O        0.42603    0.95915    0.37957    1.000
    O36      O        0.61843    0.00126    0.37314    1.000
    Cu5      Cu       0.25058    0.79613    0.50762    1.000
    Cu6      Cu       0.25817    0.95423    0.49893    1.000
    C19      C        0.81960    0.37617    0.06910    1.000
    C20      C        0.67100    0.37403    0.91610    1.000
    C21      C        0.81580    0.24088    0.23310    1.000
    C22      C        0.66640    0.26280    0.24680    1.000
    C23      C        0.00210    0.48923    0.92200    1.000
    C24      C        0.48710    0.48850    0.07140    1.000
    O37      O        0.88993    0.34490    0.11907    1.000
    O38      O        0.85668    0.40957    0.13020    1.000
    O39      O        0.62021    0.34029    0.86989    1.000
    O40      O        0.61551    0.40568    0.85288    1.000
    O41      O        0.62239    0.29238    0.15579    1.000
    O42      O        0.59900    0.25026    0.34110    1.000
    O43      O        0.87709    0.25390    0.13158    1.000
    O44      O        0.86480    0.21229    0.32334    1.000
    O45      O        0.91023    0.45988    0.88088    1.000
    O46      O        0.09180    0.50174    0.84983    1.000
    O47      O        0.57397    0.45915    0.12043    1.000
    O48      O        0.38157    0.50126    0.12686    1.000
    Cu7      Cu       0.74942    0.29613    0.99238    1.000
    Cu8      Cu       0.74183    0.45423    0.00107    1.000
