# CIF file generated by openbabel 3.1.0, see https://openbabel.org
data_I
_chemical_name_common 'SESDEA_clean'
_cell_length_a 8.8841
_cell_length_b 12.058
_cell_length_c 16.5763
_cell_angle_alpha 90
_cell_angle_beta 90
_cell_angle_gamma 109.252
_space_group_name_H-M_alt 'P 1'
_space_group_name_Hall 'P 1'
loop_
    _symmetry_equiv_pos_as_xyz
    x,y,z
loop_
    _atom_site_label
    _atom_site_type_symbol
    _atom_site_fract_x
    _atom_site_fract_y
    _atom_site_fract_z
    _atom_site_occupancy
    Eu1      Eu       0.93332    0.45230    0.88254    1.000
    Eu2      Eu       0.56668    0.54770    0.38254    1.000
    Eu3      Eu       0.06668    0.54770    0.11746    1.000
    Eu4      Eu       0.43332    0.45230    0.61746    1.000
    H1       H        0.47110    0.78080    0.93370    1.000
    H2       H        0.38010    0.86260    0.96710    1.000
    H3       H        0.62980    0.96520    0.93310    1.000
    H4       H        0.82150    0.14190    0.90060    1.000
    H5       H        0.59720    0.15320    0.69370    1.000
    H6       H        0.40500    0.97500    0.72520    1.000
    H7       H        0.91060    0.22460    0.67690    1.000
    H8       H        0.82810    0.32110    0.66720    1.000
    H9       H        0.62040    0.63860    0.98980    1.000
    H10      H        0.75360    0.70530    0.92840    1.000
    H11      H        0.98760    0.83450    0.92590    1.000
    H12      H        0.79600    0.99590    0.08680    1.000
    H13      H        0.02890    0.21920    0.43370    1.000
    H14      H        0.11990    0.13740    0.46710    1.000
    H15      H        0.87020    0.03480    0.43310    1.000
    H16      H        0.67850    0.85810    0.40060    1.000
    H17      H        0.90280    0.84680    0.19370    1.000
    H18      H        0.09500    0.02500    0.22520    1.000
    H19      H        0.58940    0.77540    0.17690    1.000
    H20      H        0.67190    0.67890    0.16720    1.000
    H21      H        0.87960    0.36140    0.48980    1.000
    H22      H        0.74640    0.29470    0.42840    1.000
    H23      H        0.51240    0.16550    0.42590    1.000
    H24      H        0.70400    0.00410    0.58680    1.000
    H25      H        0.52890    0.21920    0.06630    1.000
    H26      H        0.61990    0.13740    0.03290    1.000
    H27      H        0.37020    0.03480    0.06690    1.000
    H28      H        0.17850    0.85810    0.09940    1.000
    H29      H        0.40280    0.84680    0.30630    1.000
    H30      H        0.59500    0.02500    0.27480    1.000
    H31      H        0.08940    0.77540    0.32310    1.000
    H32      H        0.17190    0.67890    0.33280    1.000
    H33      H        0.37960    0.36140    0.01020    1.000
    H34      H        0.24640    0.29470    0.07160    1.000
    H35      H        0.01240    0.16550    0.07410    1.000
    H36      H        0.20400    0.00410    0.91320    1.000
    H37      H        0.97110    0.78080    0.56630    1.000
    H38      H        0.88010    0.86260    0.53290    1.000
    H39      H        0.12980    0.96520    0.56690    1.000
    H40      H        0.32150    0.14190    0.59940    1.000
    H41      H        0.09720    0.15320    0.80630    1.000
    H42      H        0.90500    0.97500    0.77480    1.000
    H43      H        0.41060    0.22460    0.82310    1.000
    H44      H        0.32810    0.32110    0.83280    1.000
    H45      H        0.12040    0.63860    0.51020    1.000
    H46      H        0.25360    0.70530    0.57160    1.000
    H47      H        0.48760    0.83450    0.57410    1.000
    H48      H        0.29600    0.99590    0.41320    1.000
    C1       C        0.22960    0.69530    0.94340    1.000
    C2       C        0.37590    0.80250    0.92750    1.000
    C3       C        0.49520    0.95330    0.83300    1.000
    C4       C        0.62200    0.00310    0.88510    1.000
    C5       C        0.73640    0.10890    0.86580    1.000
    C6       C        0.72500    0.16510    0.79560    1.000
    C7       C        0.60270    0.11560    0.74210    1.000
    C8       C        0.48770    0.00910    0.76110    1.000
    C9       C        0.90080    0.29570    0.70020    1.000
    C10      C        0.06250    0.39090    0.70370    1.000
    C11      C        0.84220    0.64040    0.02470    1.000
    C12      C        0.72810    0.69350    0.98530    1.000
    C13      C        0.86950    0.89770    0.00870    1.000
    C14      C        0.99220    0.90080    0.95590    1.000
    C15      C        0.87840    0.99720    0.05180    1.000
    C16      C        0.27040    0.30470    0.44340    1.000
    C17      C        0.12410    0.19750    0.42750    1.000
    C18      C        0.00480    0.04670    0.33300    1.000
    C19      C        0.87800    0.99690    0.38510    1.000
    C20      C        0.76360    0.89110    0.36580    1.000
    C21      C        0.77500    0.83490    0.29560    1.000
    C22      C        0.89730    0.88440    0.24210    1.000
    C23      C        0.01230    0.99090    0.26110    1.000
    C24      C        0.59920    0.70430    0.20020    1.000
    C25      C        0.43750    0.60910    0.20370    1.000
    C26      C        0.65780    0.35960    0.52470    1.000
    C27      C        0.77190    0.30650    0.48530    1.000
    C28      C        0.63050    0.10230    0.50870    1.000
    C29      C        0.50780    0.09920    0.45590    1.000
    C30      C        0.62160    0.00280    0.55180    1.000
    C31      C        0.77040    0.30470    0.05660    1.000
    C32      C        0.62410    0.19750    0.07250    1.000
    C33      C        0.50480    0.04670    0.16700    1.000
    C34      C        0.37800    0.99690    0.11490    1.000
    C35      C        0.26360    0.89110    0.13420    1.000
    C36      C        0.27500    0.83490    0.20440    1.000
    C37      C        0.39730    0.88440    0.25790    1.000
    C38      C        0.51230    0.99090    0.23890    1.000
    C39      C        0.09920    0.70430    0.29980    1.000
    C40      C        0.93750    0.60910    0.29630    1.000
    C41      C        0.15780    0.35960    0.97530    1.000
    C42      C        0.27190    0.30650    0.01470    1.000
    C43      C        0.13050    0.10230    0.99130    1.000
    C44      C        0.00780    0.09920    0.04410    1.000
    C45      C        0.12160    0.00280    0.94820    1.000
    C46      C        0.72960    0.69530    0.55660    1.000
    C47      C        0.87590    0.80250    0.57250    1.000
    C48      C        0.99520    0.95330    0.66700    1.000
    C49      C        0.12200    0.00310    0.61490    1.000
    C50      C        0.23640    0.10890    0.63420    1.000
    C51      C        0.22500    0.16510    0.70440    1.000
    C52      C        0.10270    0.11560    0.75790    1.000
    C53      C        0.98770    0.00910    0.73890    1.000
    C54      C        0.40080    0.29570    0.79980    1.000
    C55      C        0.56250    0.39090    0.79630    1.000
    C56      C        0.34220    0.64040    0.47530    1.000
    C57      C        0.22810    0.69350    0.51470    1.000
    C58      C        0.36950    0.89770    0.49130    1.000
    C59      C        0.49220    0.90080    0.54410    1.000
    C60      C        0.37840    0.99720    0.44820    1.000
    O1       O        0.15720    0.63080    0.88610    1.000
    O2       O        0.19790    0.68110    0.01650    1.000
    O3       O        0.37420    0.84910    0.84900    1.000
    O4       O        0.84150    0.27380    0.78160    1.000
    O5       O        0.14940    0.40000    0.64310    1.000
    O6       O        0.09510    0.45520    0.76500    1.000
    O7       O        0.86960    0.55780    0.98810    1.000
    O8       O        0.90130    0.67510    0.09140    1.000
    O9       O        0.73380    0.80270    0.02040    1.000
    O10      O        0.34280    0.36920    0.38610    1.000
    O11      O        0.30210    0.31890    0.51650    1.000
    O12      O        0.12580    0.15090    0.34900    1.000
    O13      O        0.65850    0.72620    0.28160    1.000
    O14      O        0.35060    0.60000    0.14310    1.000
    O15      O        0.40490    0.54480    0.26500    1.000
    O16      O        0.63040    0.44220    0.48810    1.000
    O17      O        0.59870    0.32490    0.59140    1.000
    O18      O        0.76620    0.19730    0.52040    1.000
    O19      O        0.84280    0.36920    0.11390    1.000
    O20      O        0.80210    0.31890    0.98350    1.000
    O21      O        0.62580    0.15090    0.15100    1.000
    O22      O        0.15850    0.72620    0.21840    1.000
    O23      O        0.85060    0.60000    0.35690    1.000
    O24      O        0.90490    0.54480    0.23500    1.000
    O25      O        0.13040    0.44220    0.01190    1.000
    O26      O        0.09870    0.32490    0.90860    1.000
    O27      O        0.26620    0.19730    0.97960    1.000
    O28      O        0.65720    0.63080    0.61390    1.000
    O29      O        0.69790    0.68110    0.48350    1.000
    O30      O        0.87420    0.84910    0.65100    1.000
    O31      O        0.34150    0.27380    0.71840    1.000
    O32      O        0.64940    0.40000    0.85690    1.000
    O33      O        0.59510    0.45520    0.73500    1.000
    O34      O        0.36960    0.55780    0.51190    1.000
    O35      O        0.40130    0.67510    0.40860    1.000
    O36      O        0.23380    0.80270    0.47960    1.000
