# CIF file generated by openbabel 3.1.0, see https://openbabel.org
data_I
_chemical_name_common 'EPOXAJ_clean'
_cell_length_a 8.0495
_cell_length_b 11.8852
_cell_length_c 11.9209
_cell_angle_alpha 79.881
_cell_angle_beta 86.231
_cell_angle_gamma 81.912
_space_group_name_H-M_alt 'P 1'
_space_group_name_Hall 'P 1'
loop_
    _symmetry_equiv_pos_as_xyz
    x,y,z
loop_
    _atom_site_label
    _atom_site_type_symbol
    _atom_site_fract_x
    _atom_site_fract_y
    _atom_site_fract_z
    _atom_site_occupancy
    U1       U        0.04212    0.56392    0.70208    1.000
    U2       U        0.77696    0.50507    0.97635    1.000
    U3       U        0.60820    0.84850    0.99040    1.000
    U4       U        0.31680    0.06250    0.71860    1.000
    U5       U        0.95788    0.43608    0.29792    1.000
    U6       U        0.22304    0.49493    0.02365    1.000
    U7       U        0.39180    0.15150    0.00960    1.000
    U8       U        0.68320    0.93750    0.28140    1.000
    H1       H        0.51993    0.49741    0.59988    1.000
    H2       H        0.63879    0.41715    0.67835    1.000
    H3       H        0.48367    0.71651    0.60203    1.000
    H4       H        0.66700    0.72750    0.60022    1.000
    H5       H        0.48007    0.50259    0.40012    1.000
    H6       H        0.36121    0.58285    0.32165    1.000
    H7       H        0.51633    0.28349    0.39797    1.000
    H8       H        0.33300    0.27250    0.39978    1.000
    C1       C        0.53700    0.79960    0.72910    1.000
    C2       C        0.61060    0.58190    0.71460    1.000
    C3       C        0.62500    0.49350    0.63450    1.000
    C4       C        0.76300    0.50340    0.54330    1.000
    C5       C        0.57400    0.70950    0.65220    1.000
    C6       C        0.46310    0.55550    0.79450    1.000
    C7       C        0.46300    0.20040    0.27090    1.000
    C8       C        0.38940    0.41810    0.28540    1.000
    C9       C        0.37500    0.50650    0.36550    1.000
    C10      C        0.23700    0.49660    0.45670    1.000
    C11      C        0.42600    0.29050    0.34780    1.000
    C12      C        0.53690    0.44450    0.20550    1.000
    O1       O        0.75750    0.56630    0.77640    1.000
    O2       O        0.31920    0.57180    0.75780    1.000
    O3       O        0.73630    0.65230    0.00540    1.000
    O4       O        0.02690    0.53980    0.89340    1.000
    O5       O        0.52020    0.76610    0.83520    1.000
    O6       O        0.86760    0.57480    0.54660    1.000
    O7       O        0.78600    0.81200    0.15120    1.000
    O8       O        0.48750    0.52030    0.89960    1.000
    O9       O        0.40600    0.99300    0.90800    1.000
    O10      O        0.77080    0.43940    0.46960    1.000
    O11      O        0.52400    0.90190    0.68310    1.000
    O12      O        0.24250    0.43370    0.22360    1.000
    O13      O        0.68080    0.42820    0.24220    1.000
    O14      O        0.26370    0.34770    0.99460    1.000
    O15      O        0.97310    0.46020    0.10660    1.000
    O16      O        0.47980    0.23390    0.16480    1.000
    O17      O        0.13240    0.42520    0.45340    1.000
    O18      O        0.21400    0.18800    0.84880    1.000
    O19      O        0.51250    0.47970    0.10040    1.000
    O20      O        0.59400    0.00700    0.09200    1.000
    O21      O        0.22920    0.56060    0.53040    1.000
    O22      O        0.47600    0.09810    0.31690    1.000
