# CIF file generated by openbabel 3.1.0, see https://openbabel.org
data_I
_chemical_name_common 'image0'
_cell_length_a 12.975
_cell_length_b 13.06
_cell_length_c 22.382
_cell_angle_alpha 95.776
_cell_angle_beta 92.004
_cell_angle_gamma 112.678
_space_group_name_H-M_alt 'P 1'
_space_group_name_Hall 'P 1'
loop_
    _symmetry_equiv_pos_as_xyz
    x,y,z
loop_
    _atom_site_label
    _atom_site_type_symbol
    _atom_site_fract_x
    _atom_site_fract_y
    _atom_site_fract_z
    _atom_site_occupancy
    Zn1      Zn       0.86002    0.76082    0.29949    1.000
    Zn2      Zn       0.85366    0.71572    0.16722    1.000
    O1       O        0.88880    0.92270    0.28927    1.000
    C1       C        0.88150    0.94340    0.23563    1.000
    O2       O        0.88070    0.88070    0.18980    1.000
    O3       O        0.02220    0.78630    0.28874    1.000
    C2       C        0.06240    0.76570    0.24116    1.000
    O4       O        0.01850    0.75320    0.18854    1.000
    O5       O        0.82580    0.59440    0.28133    1.000
    C3       C        0.82710    0.53330    0.23470    1.000
    O6       O        0.82780    0.55770    0.18192    1.000
    O7       O        0.69790    0.72650    0.27369    1.000
    C4       C        0.64830    0.70140    0.22169    1.000
    O8       O        0.68870    0.68190    0.17374    1.000
    N1       N        0.86100    0.76540    0.39080    1.000
    C5       C        0.77650    0.69050    0.41539    1.000
    H1       H        0.71640    0.63660    0.38950    1.000
    C6       C        0.77260    0.68790    0.47715    1.000
    H2       H        0.71060    0.63460    0.49340    1.000
    C7       C        0.86180    0.76550    0.51430    1.000
    C8       C        0.95000    0.84260    0.48912    1.000
    H3       H        0.01220    0.89600    0.51390    1.000
    C9       C        0.94580    0.84060    0.42727    1.000
    H4       H        0.00550    0.89470    0.41000    1.000
    N2       N        0.86300    0.76360    0.57840    1.000
    C10      C        0.85180    0.85350    0.61374    1.000
    C11      C        0.85080    0.84810    0.67938    1.000
    C12      C        0.84480    0.93530    0.71671    1.000
    H5       H        0.84040    0.99780    0.70010    1.000
    C13      C        0.84520    0.93270    0.77953    1.000
    H6       H        0.84160    0.99360    0.80520    1.000
    C14      C        0.85070    0.84140    0.80374    1.000
    C15      C        0.85330    0.84110    0.86974    1.000
    N3       N        0.85720    0.74420    0.89097    1.000
    C16      C        0.86340    0.65180    0.85539    1.000
    C17      C        0.86260    0.65660    0.78937    1.000
    C18      C        0.86880    0.56870    0.75192    1.000
    H7       H        0.87140    0.50540    0.76830    1.000
    C19      C        0.87150    0.57330    0.68971    1.000
    H8       H        0.87770    0.51370    0.66400    1.000
    C20      C        0.86510    0.66450    0.66567    1.000
    C21      C        0.87010    0.66860    0.60017    1.000
    C22      C        0.85690    0.75380    0.70319    1.000
    C23      C        0.85590    0.75030    0.76599    1.000
    O9       O        0.84440    0.93010    0.59016    1.000
    O10      O        0.85250    0.91780    0.90464    1.000
    O11      O        0.87020    0.57490    0.87871    1.000
    O12      O        0.88260    0.59740    0.56575    1.000
    C24      C        0.17300    0.75440    0.24769    1.000
    C25      C        0.23020    0.77600    0.30510    1.000
    H9       H        0.19840    0.79700    0.33940    1.000
    C26      C        0.33160    0.76660    0.31170    1.000
    H10      H        0.36990    0.78200    0.35060    1.000
    C27      C        0.37990    0.73440    0.26109    1.000
    C28      C        0.48660    0.72900    0.26609    1.000
    H11      H        0.52780    0.74730    0.30430    1.000
    C29      C        0.53120    0.69760    0.21627    1.000
    C30      C        0.46920    0.66760    0.15930    1.000
    H12      H        0.49980    0.64470    0.12500    1.000
    C31      C        0.36630    0.67150    0.15360    1.000
    H13      H        0.32510    0.65010    0.11530    1.000
    C32      C        0.31890    0.70720    0.20400    1.000
    C33      C        0.21540    0.71890    0.19856    1.000
    H14      H        0.17470    0.70180    0.16030    1.000
    C34      C        0.87170    0.05190    0.22605    1.000
    C35      C        0.86200    0.12070    0.27313    1.000
    H15      H        0.86280    0.10060    0.31270    1.000
    C36      C        0.85080    0.22230    0.26448    1.000
    C37      C        0.84010    0.29410    0.31300    1.000
    H16      H        0.83960    0.27450    0.35280    1.000
    C38      C        0.83060    0.39230    0.30330    1.000
    H17      H        0.82380    0.44050    0.33630    1.000
    C39      C        0.83080    0.42200    0.24380    1.000
    C40      C        0.84020    0.35290    0.19640    1.000
    H18      H        0.84040    0.37380    0.15690    1.000
    C41      C        0.84960    0.25060    0.20463    1.000
    C42      C        0.85980    0.17820    0.15670    1.000
    H19      H        0.85900    0.19710    0.11680    1.000
    C43      C        0.87070    0.08100    0.16623    1.000
    H20      H        0.87760    0.03300    0.13320    1.000
    N4       N        0.85630    0.72370    0.07697    1.000
    C44      C        0.77090    0.65440    0.03894    1.000
    H21      H        0.70970    0.59930    0.05470    1.000
    C45      C        0.76740    0.65910    0.97789    1.000
    H22      H        0.70540    0.60840    0.95190    1.000
    C46      C        0.85680    0.73970    0.95525    1.000
    C47      C        0.94490    0.81180    0.99354    1.000
    H23      H        0.00690    0.86750    0.97870    1.000
    C48      C        0.94190    0.80170    0.05457    1.000
    H24      H        0.00270    0.85190    0.08150    1.000
    Zn3      Zn       0.13998    0.23918    0.70051    1.000
    Zn4      Zn       0.14634    0.28428    0.83278    1.000
    O13      O        0.11120    0.07730    0.71073    1.000
    C49      C        0.11850    0.05660    0.76437    1.000
    O14      O        0.11930    0.11930    0.81020    1.000
    O15      O        0.97780    0.21370    0.71126    1.000
    C50      C        0.93760    0.23430    0.75884    1.000
    O16      O        0.98150    0.24680    0.81146    1.000
    O17      O        0.17420    0.40560    0.71867    1.000
    C51      C        0.17290    0.46670    0.76530    1.000
    O18      O        0.17220    0.44230    0.81808    1.000
    O19      O        0.30210    0.27350    0.72631    1.000
    C52      C        0.35170    0.29860    0.77831    1.000
    O20      O        0.31130    0.31810    0.82626    1.000
    N5       N        0.13900    0.23460    0.60920    1.000
    C53      C        0.22350    0.30950    0.58461    1.000
    H25      H        0.28360    0.36340    0.61050    1.000
    C54      C        0.22740    0.31210    0.52285    1.000
    H26      H        0.28940    0.36540    0.50660    1.000
    C55      C        0.13820    0.23450    0.48570    1.000
    C56      C        0.05000    0.15740    0.51088    1.000
    H27      H        0.98780    0.10400    0.48610    1.000
    C57      C        0.05420    0.15940    0.57273    1.000
    H28      H        0.99450    0.10530    0.59000    1.000
    N6       N        0.13700    0.23640    0.42160    1.000
    C58      C        0.14820    0.14650    0.38626    1.000
    C59      C        0.14920    0.15190    0.32062    1.000
    C60      C        0.15520    0.06470    0.28329    1.000
    H29      H        0.15960    0.00220    0.29990    1.000
    C61      C        0.15480    0.06730    0.22047    1.000
    H30      H        0.15840    0.00640    0.19480    1.000
    C62      C        0.14930    0.15860    0.19626    1.000
    C63      C        0.14670    0.15890    0.13026    1.000
    N7       N        0.14280    0.25580    0.10903    1.000
    C64      C        0.13660    0.34820    0.14461    1.000
    C65      C        0.13740    0.34340    0.21063    1.000
    C66      C        0.13120    0.43130    0.24808    1.000
    H31      H        0.12860    0.49460    0.23170    1.000
    C67      C        0.12850    0.42670    0.31029    1.000
    H32      H        0.12230    0.48630    0.33600    1.000
    C68      C        0.13490    0.33550    0.33433    1.000
    C69      C        0.12990    0.33140    0.39983    1.000
    C70      C        0.14310    0.24620    0.29681    1.000
    C71      C        0.14410    0.24970    0.23401    1.000
    O21      O        0.15560    0.06990    0.40984    1.000
    O22      O        0.14750    0.08220    0.09536    1.000
    O23      O        0.12980    0.42510    0.12129    1.000
    O24      O        0.11740    0.40260    0.43425    1.000
    C72      C        0.82700    0.24560    0.75231    1.000
    C73      C        0.76980    0.22400    0.69490    1.000
    H33      H        0.80160    0.20300    0.66060    1.000
    C74      C        0.66840    0.23340    0.68830    1.000
    H34      H        0.63010    0.21800    0.64940    1.000
    C75      C        0.62010    0.26560    0.73891    1.000
    C76      C        0.51340    0.27100    0.73391    1.000
    H35      H        0.47220    0.25270    0.69570    1.000
    C77      C        0.46880    0.30240    0.78373    1.000
    C78      C        0.53080    0.33240    0.84070    1.000
    H36      H        0.50020    0.35530    0.87500    1.000
    C79      C        0.63370    0.32850    0.84640    1.000
    H37      H        0.67490    0.34990    0.88470    1.000
    C80      C        0.68110    0.29280    0.79600    1.000
    C81      C        0.78460    0.28110    0.80144    1.000
    H38      H        0.82530    0.29820    0.83970    1.000
    C82      C        0.12830    0.94810    0.77395    1.000
    C83      C        0.13800    0.87930    0.72687    1.000
    H39      H        0.13720    0.89940    0.68730    1.000
    C84      C        0.14920    0.77770    0.73552    1.000
    C85      C        0.15990    0.70590    0.68700    1.000
    H40      H        0.16040    0.72550    0.64720    1.000
    C86      C        0.16940    0.60770    0.69670    1.000
    H41      H        0.17620    0.55950    0.66370    1.000
    C87      C        0.16920    0.57800    0.75620    1.000
    C88      C        0.15980    0.64710    0.80360    1.000
    H42      H        0.15960    0.62620    0.84310    1.000
    C89      C        0.15040    0.74940    0.79537    1.000
    C90      C        0.14020    0.82180    0.84330    1.000
    H43      H        0.14100    0.80290    0.88320    1.000
    C91      C        0.12930    0.91900    0.83377    1.000
    H44      H        0.12240    0.96700    0.86680    1.000
    N8       N        0.14370    0.27630    0.92303    1.000
    C92      C        0.22910    0.34560    0.96106    1.000
    H45      H        0.29030    0.40070    0.94530    1.000
    C93      C        0.23260    0.34090    0.02211    1.000
    H46      H        0.29460    0.39160    0.04810    1.000
    C94      C        0.14320    0.26030    0.04475    1.000
    C95      C        0.05510    0.18820    0.00646    1.000
    H47      H        0.99310    0.13250    0.02130    1.000
    C96      C        0.05810    0.19830    0.94543    1.000
    H48      H        0.99730    0.14810    0.91850    1.000
