# CIF file generated by openbabel 3.1.0, see https://openbabel.org
data_I
_chemical_name_common 'image0'
_cell_length_a 20.365
_cell_length_b 20.119
_cell_length_c 17.311
_cell_angle_alpha 90
_cell_angle_beta 103.166
_cell_angle_gamma 90
_space_group_name_H-M_alt 'P 1'
_space_group_name_Hall 'P 1'
loop_
    _symmetry_equiv_pos_as_xyz
    x,y,z
loop_
    _atom_site_label
    _atom_site_type_symbol
    _atom_site_fract_x
    _atom_site_fract_y
    _atom_site_fract_z
    _atom_site_occupancy
    Co1      Co       0.87510    0.13550    0.26328    1.000
    Co2      Co       0.38409    0.12816    0.25581    1.000
    C1       C        0.87780    0.20880    0.42330    1.000
    H1       H        0.84020    0.23390    0.40000    1.000
    C2       C        0.91340    0.21580    0.49970    1.000
    H2       H        0.90510    0.24560    0.53750    1.000
    C3       C        0.95709    0.13844    0.43840    1.000
    H3       H        0.98600    0.10550    0.42830    1.000
    C4       C        0.01646    0.15968    0.57840    1.000
    C5       C        0.04018    0.21439    0.62600    1.000
    H4       H        0.02290    0.25660    0.61190    1.000
    C6       C        0.08927    0.20518    0.69370    1.000
    H5       H        0.10480    0.24170    0.72550    1.000
    C7       C        0.11666    0.14298    0.71650    1.000
    C8       C        0.09196    0.08893    0.66740    1.000
    H6       H        0.10960    0.04670    0.68050    1.000
    C9       C        0.04190    0.09777    0.60020    1.000
    H7       H        0.02500    0.06120    0.56910    1.000
    C10      C        0.17016    0.13557    0.79040    1.000
    C11      C        0.21752    0.18600    0.81320    1.000
    H8       H        0.21580    0.22350    0.78140    1.000
    C12      C        0.26660    0.18114    0.88190    1.000
    H9       H        0.29800    0.21510    0.89610    1.000
    C13      C        0.26951    0.12610    0.93010    1.000
    C14      C        0.22380    0.07521    0.90760    1.000
    H10      H        0.22620    0.03750    0.93920    1.000
    C15      C        0.17434    0.08000    0.83830    1.000
    H11      H        0.14360    0.04550    0.82380    1.000
    C16      C        0.31195    0.11464    0.07530    1.000
    H12      H        0.27060    0.10470    0.08680    1.000
    C17      C        0.41570    0.13800    0.08790    1.000
    H13      H        0.46090    0.14680    0.11030    1.000
    C18      C        0.38730    0.13950    0.00940    1.000
    H14      H        0.40870    0.14960    0.96880    1.000
    C19      C        0.79540    0.13630    0.08600    1.000
    H15      H        0.75930    0.15760    0.10000    1.000
    C20      C        0.88860    0.09250    0.09410    1.000
    H16      H        0.93240    0.07750    0.11380    1.000
    C21      C        0.85560    0.08860    0.01830    1.000
    H17      H        0.87120    0.06870    0.97730    1.000
    C22      C        0.74334    0.12468    0.94130    1.000
    C23      C        0.71890    0.18560    0.91190    1.000
    H18      H        0.73530    0.22420    0.93910    1.000
    C24      C        0.67010    0.18950    0.84260    1.000
    H19      H        0.65330    0.23080    0.82380    1.000
    C25      C        0.64547    0.13238    0.79970    1.000
    C26      C        0.66970    0.07230    0.83100    1.000
    H20      H        0.65240    0.03340    0.80520    1.000
    C27      C        0.71940    0.06830    0.90040    1.000
    H21      H        0.73650    0.02710    0.91920    1.000
    C28      C        0.59417    0.13577    0.72320    1.000
    C29      C        0.54960    0.18930    0.70460    1.000
    H22      H        0.55290    0.22430    0.74030    1.000
    C30      C        0.50130    0.19160    0.63530    1.000
    H23      H        0.47180    0.22750    0.62450    1.000
    C31      C        0.49654    0.14002    0.58130    1.000
    C32      C        0.53900    0.08610    0.59800    1.000
    H24      H        0.53500    0.05100    0.56230    1.000
    C33      C        0.58770    0.08490    0.66840    1.000
    H25      H        0.61690    0.04870    0.67910    1.000
    C34      C        0.37980    0.16240    0.49850    1.000
    H26      H        0.35860    0.17680    0.53770    1.000
    C35      C        0.35200    0.15720    0.42090    1.000
    H27      H        0.30730    0.16720    0.39740    1.000
    C36      C        0.45403    0.12641    0.43630    1.000
    H28      H        0.49440    0.11100    0.42640    1.000
    C37      C        0.51150    0.09030    0.26910    1.000
    C38      C        0.57589    0.05225    0.27130    1.000
    C39      C        0.63692    0.08530    0.27550    1.000
    H29      H        0.63810    0.13150    0.27780    1.000
    C40      C        0.76082    0.08519    0.27500    1.000
    C41      C        0.69607    0.05014    0.27640    1.000
    C42      C        0.69309    0.98113    0.27300    1.000
    H30      H        0.73230    0.95710    0.27440    1.000
    C43      C        0.63289    0.94738    0.26769    1.000
    C44      C        0.57473    0.98357    0.26670    1.000
    H31      H        0.53410    0.96120    0.26290    1.000
    C45      C        0.63011    0.87351    0.26230    1.000
    C46      C        0.67573    0.83327    0.31330    1.000
    H32      H        0.70990    0.85220    0.35190    1.000
    C47      C        0.67026    0.76557    0.30670    1.000
    H33      H        0.70150    0.73980    0.34150    1.000
    C48      C        0.57842    0.77306    0.20260    1.000
    H34      H        0.54530    0.75290    0.16370    1.000
    C49      C        0.58041    0.84112    0.20660    1.000
    H35      H        0.54810    0.86590    0.17170    1.000
    C50      C        0.24679    0.10047    0.24700    1.000
    C51      C        0.18746    0.06167    0.26099    1.000
    C52      C        0.18859    0.99226    0.26648    1.000
    H36      H        0.22800    0.96960    0.26470    1.000
    C53      C        0.13228    0.95650    0.27449    1.000
    C54      C        0.07402    0.99180    0.27886    1.000
    H37      H        0.03610    0.96880    0.28560    1.000
    C55      C        0.07191    0.06083    0.27327    1.000
    C56      C        0.00725    0.09921    0.27090    1.000
    C57      C        0.12903    0.09486    0.26506    1.000
    H38      H        0.12800    0.14100    0.26220    1.000
    C58      C        0.13295    0.88287    0.27400    1.000
    C59      C        0.18980    0.84608    0.27680    1.000
    H39      H        0.23100    0.86770    0.28240    1.000
    C60      C        0.18770    0.77836    0.27160    1.000
    H40      H        0.22820    0.75580    0.27590    1.000
    C61      C        0.07738    0.77812    0.26140    1.000
    H41      H        0.03700    0.75530    0.25720    1.000
    C62      C        0.07568    0.84631    0.26790    1.000
    H42      H        0.03520    0.86750    0.26810    1.000
    N1       N        0.90468    0.16027    0.38584    1.000
    N2       N        0.96409    0.16933    0.50887    1.000
    N3       N        0.32061    0.12323    0.00150    1.000
    N4       N        0.36857    0.12187    0.12983    1.000
    N5       N        0.85064    0.12067    0.13710    1.000
    N6       N        0.79545    0.11891    0.01198    1.000
    N7       N        0.44593    0.14246    0.50890    1.000
    N8       N        0.39876    0.13482    0.38084    1.000
    N9       N        0.62229    0.73418    0.25268    1.000
    N10      N        0.13148    0.74264    0.26073    1.000
    O1       O        0.45835    0.05763    0.26419    1.000
    O2       O        0.51187    0.15124    0.27190    1.000
    O3       O        0.76035    0.14635    0.26423    1.000
    O4       O        0.81366    0.05274    0.28271    1.000
    O5       O        0.30232    0.06987    0.25637    1.000
    O6       O        0.23860    0.15885    0.22660    1.000
    O7       O        0.95551    0.06829    0.27658    1.000
    O8       O        0.00797    0.15959    0.26230    1.000
    Co3      Co       0.12490    0.63550    0.23672    1.000
    Co4      Co       0.61591    0.62816    0.24419    1.000
    C63      C        0.12220    0.70880    0.07670    1.000
    H43      H        0.15980    0.73390    0.10000    1.000
    C64      C        0.08660    0.71580    0.00030    1.000
    H44      H        0.09490    0.74560    0.96250    1.000
    C65      C        0.04291    0.63844    0.06160    1.000
    H45      H        0.01400    0.60550    0.07170    1.000
    C66      C        0.98354    0.65968    0.92160    1.000
    C67      C        0.95982    0.71439    0.87400    1.000
    H46      H        0.97710    0.75660    0.88810    1.000
    C68      C        0.91073    0.70518    0.80630    1.000
    H47      H        0.89520    0.74170    0.77450    1.000
    C69      C        0.88334    0.64298    0.78350    1.000
    C70      C        0.90804    0.58893    0.83260    1.000
    H48      H        0.89040    0.54670    0.81950    1.000
    C71      C        0.95810    0.59777    0.89980    1.000
    H49      H        0.97500    0.56120    0.93090    1.000
    C72      C        0.82984    0.63557    0.70960    1.000
    C73      C        0.78248    0.68600    0.68680    1.000
    H50      H        0.78420    0.72350    0.71860    1.000
    C74      C        0.73340    0.68114    0.61810    1.000
    H51      H        0.70200    0.71510    0.60390    1.000
    C75      C        0.73049    0.62610    0.56990    1.000
    C76      C        0.77620    0.57521    0.59240    1.000
    H52      H        0.77380    0.53750    0.56080    1.000
    C77      C        0.82566    0.58000    0.66170    1.000
    H53      H        0.85640    0.54550    0.67620    1.000
    C78      C        0.68805    0.61464    0.42470    1.000
    H54      H        0.72940    0.60470    0.41320    1.000
    C79      C        0.58430    0.63800    0.41210    1.000
    H55      H        0.53910    0.64680    0.38970    1.000
    C80      C        0.61270    0.63950    0.49060    1.000
    H56      H        0.59130    0.64960    0.53120    1.000
    C81      C        0.20460    0.63630    0.41400    1.000
    H57      H        0.24070    0.65760    0.40000    1.000
    C82      C        0.11140    0.59250    0.40590    1.000
    H58      H        0.06760    0.57750    0.38620    1.000
    C83      C        0.14440    0.58860    0.48170    1.000
    H59      H        0.12880    0.56870    0.52270    1.000
    C84      C        0.25666    0.62468    0.55870    1.000
    C85      C        0.28110    0.68560    0.58810    1.000
    H60      H        0.26470    0.72420    0.56090    1.000
    C86      C        0.32990    0.68950    0.65740    1.000
    H61      H        0.34670    0.73080    0.67620    1.000
    C87      C        0.35453    0.63238    0.70030    1.000
    C88      C        0.33030    0.57230    0.66900    1.000
    H62      H        0.34760    0.53340    0.69480    1.000
    C89      C        0.28060    0.56830    0.59960    1.000
    H63      H        0.26350    0.52710    0.58080    1.000
    C90      C        0.40583    0.63577    0.77680    1.000
    C91      C        0.45040    0.68930    0.79540    1.000
    H64      H        0.44710    0.72430    0.75970    1.000
    C92      C        0.49870    0.69160    0.86470    1.000
    H65      H        0.52820    0.72750    0.87550    1.000
    C93      C        0.50346    0.64002    0.91870    1.000
    C94      C        0.46100    0.58610    0.90200    1.000
    H66      H        0.46500    0.55100    0.93770    1.000
    C95      C        0.41230    0.58490    0.83160    1.000
    H67      H        0.38310    0.54870    0.82090    1.000
    C96      C        0.62020    0.66240    0.00150    1.000
    H68      H        0.64140    0.67680    0.96230    1.000
    C97      C        0.64800    0.65720    0.07910    1.000
    H69      H        0.69270    0.66720    0.10260    1.000
    C98      C        0.54597    0.62641    0.06370    1.000
    H70      H        0.50560    0.61100    0.07360    1.000
    C99      C        0.48850    0.59030    0.23090    1.000
    C100     C        0.42411    0.55225    0.22870    1.000
    C101     C        0.36308    0.58530    0.22450    1.000
    H71      H        0.36190    0.63150    0.22220    1.000
    C102     C        0.23918    0.58519    0.22500    1.000
    C103     C        0.30393    0.55014    0.22360    1.000
    C104     C        0.30691    0.48113    0.22700    1.000
    H72      H        0.26770    0.45710    0.22560    1.000
    C105     C        0.36711    0.44738    0.23231    1.000
    C106     C        0.42527    0.48357    0.23330    1.000
    H73      H        0.46590    0.46120    0.23710    1.000
    C107     C        0.36989    0.37351    0.23770    1.000
    C108     C        0.32427    0.33327    0.18670    1.000
    H74      H        0.29010    0.35220    0.14810    1.000
    C109     C        0.32974    0.26557    0.19330    1.000
    H75      H        0.29850    0.23980    0.15850    1.000
    C110     C        0.42158    0.27306    0.29740    1.000
    H76      H        0.45470    0.25290    0.33630    1.000
    C111     C        0.41959    0.34112    0.29340    1.000
    H77      H        0.45190    0.36590    0.32830    1.000
    C112     C        0.75321    0.60047    0.25300    1.000
    C113     C        0.81254    0.56167    0.23901    1.000
    C114     C        0.81141    0.49226    0.23352    1.000
    H78      H        0.77200    0.46960    0.23530    1.000
    C115     C        0.86772    0.45650    0.22551    1.000
    C116     C        0.92598    0.49180    0.22114    1.000
    H79      H        0.96390    0.46880    0.21440    1.000
    C117     C        0.92809    0.56083    0.22673    1.000
    C118     C        0.99275    0.59921    0.22910    1.000
    C119     C        0.87097    0.59486    0.23494    1.000
    H80      H        0.87200    0.64100    0.23780    1.000
    C120     C        0.86705    0.38287    0.22600    1.000
    C121     C        0.81020    0.34608    0.22320    1.000
    H81      H        0.76900    0.36770    0.21760    1.000
    C122     C        0.81230    0.27836    0.22840    1.000
    H82      H        0.77180    0.25580    0.22410    1.000
    C123     C        0.92262    0.27812    0.23860    1.000
    H83      H        0.96300    0.25530    0.24280    1.000
    C124     C        0.92432    0.34631    0.23210    1.000
    H84      H        0.96480    0.36750    0.23190    1.000
    N11      N        0.09532    0.66027    0.11416    1.000
    N12      N        0.03591    0.66933    0.99113    1.000
    N13      N        0.67939    0.62323    0.49850    1.000
    N14      N        0.63143    0.62187    0.37017    1.000
    N15      N        0.14936    0.62067    0.36290    1.000
    N16      N        0.20455    0.61891    0.48802    1.000
    N17      N        0.55407    0.64246    0.99110    1.000
    N18      N        0.60124    0.63482    0.11916    1.000
    N19      N        0.37771    0.23418    0.24732    1.000
    N20      N        0.86852    0.24264    0.23927    1.000
    O9       O        0.54165    0.55763    0.23581    1.000
    O10      O        0.48813    0.65124    0.22810    1.000
    O11      O        0.23965    0.64635    0.23577    1.000
    O12      O        0.18634    0.55274    0.21729    1.000
    O13      O        0.69768    0.56987    0.24363    1.000
    O14      O        0.76140    0.65885    0.27340    1.000
    O15      O        0.04449    0.56829    0.22342    1.000
    O16      O        0.99203    0.65959    0.23770    1.000
    Co5      Co       0.12490    0.86450    0.73672    1.000
    Co6      Co       0.61591    0.87184    0.74419    1.000
    C125     C        0.12220    0.79120    0.57670    1.000
    H85      H        0.15980    0.76610    0.60000    1.000
    C126     C        0.08660    0.78420    0.50030    1.000
    H86      H        0.09490    0.75440    0.46250    1.000
    C127     C        0.04291    0.86156    0.56160    1.000
    H87      H        0.01400    0.89450    0.57170    1.000
    C128     C        0.98354    0.84032    0.42160    1.000
    C129     C        0.95982    0.78561    0.37400    1.000
    H88      H        0.97710    0.74340    0.38810    1.000
    C130     C        0.91073    0.79482    0.30630    1.000
    H89      H        0.89520    0.75830    0.27450    1.000
    C131     C        0.88334    0.85702    0.28350    1.000
    C132     C        0.90804    0.91107    0.33260    1.000
    H90      H        0.89040    0.95330    0.31950    1.000
    C133     C        0.95810    0.90223    0.39980    1.000
    H91      H        0.97500    0.93880    0.43090    1.000
    C134     C        0.82984    0.86443    0.20960    1.000
    C135     C        0.78248    0.81400    0.18680    1.000
    H92      H        0.78420    0.77650    0.21860    1.000
    C136     C        0.73340    0.81886    0.11810    1.000
    H93      H        0.70200    0.78490    0.10390    1.000
    C137     C        0.73049    0.87390    0.06990    1.000
    C138     C        0.77620    0.92479    0.09240    1.000
    H94      H        0.77380    0.96250    0.06080    1.000
    C139     C        0.82566    0.92000    0.16170    1.000
    H95      H        0.85640    0.95450    0.17620    1.000
    C140     C        0.68805    0.88536    0.92470    1.000
    H96      H        0.72940    0.89530    0.91320    1.000
    C141     C        0.58430    0.86200    0.91210    1.000
    H97      H        0.53910    0.85320    0.88970    1.000
    C142     C        0.61270    0.86050    0.99060    1.000
    H98      H        0.59130    0.85040    0.03120    1.000
    C143     C        0.20460    0.86370    0.91400    1.000
    H99      H        0.24070    0.84240    0.90000    1.000
    C144     C        0.11140    0.90750    0.90590    1.000
    H100     H        0.06760    0.92250    0.88620    1.000
    C145     C        0.14440    0.91140    0.98170    1.000
    H101     H        0.12880    0.93130    0.02270    1.000
    C146     C        0.25666    0.87532    0.05870    1.000
    C147     C        0.28110    0.81440    0.08810    1.000
    H102     H        0.26470    0.77580    0.06090    1.000
    C148     C        0.32990    0.81050    0.15740    1.000
    H103     H        0.34670    0.76920    0.17620    1.000
    C149     C        0.35453    0.86762    0.20030    1.000
    C150     C        0.33030    0.92770    0.16900    1.000
    H104     H        0.34760    0.96660    0.19480    1.000
    C151     C        0.28060    0.93170    0.09960    1.000
    H105     H        0.26350    0.97290    0.08080    1.000
    C152     C        0.40583    0.86423    0.27680    1.000
    C153     C        0.45040    0.81070    0.29540    1.000
    H106     H        0.44710    0.77570    0.25970    1.000
    C154     C        0.49870    0.80840    0.36470    1.000
    H107     H        0.52820    0.77250    0.37550    1.000
    C155     C        0.50346    0.85998    0.41870    1.000
    C156     C        0.46100    0.91390    0.40200    1.000
    H108     H        0.46500    0.94900    0.43770    1.000
    C157     C        0.41230    0.91510    0.33160    1.000
    H109     H        0.38310    0.95130    0.32090    1.000
    C158     C        0.62020    0.83760    0.50150    1.000
    H110     H        0.64140    0.82320    0.46230    1.000
    C159     C        0.64800    0.84280    0.57910    1.000
    H111     H        0.69270    0.83280    0.60260    1.000
    C160     C        0.54597    0.87359    0.56370    1.000
    H112     H        0.50560    0.88900    0.57360    1.000
    C161     C        0.48850    0.90970    0.73090    1.000
    C162     C        0.42411    0.94775    0.72870    1.000
    C163     C        0.36308    0.91470    0.72450    1.000
    H113     H        0.36190    0.86850    0.72220    1.000
    C164     C        0.23918    0.91481    0.72500    1.000
    C165     C        0.30393    0.94986    0.72360    1.000
    C166     C        0.30691    0.01887    0.72700    1.000
    H114     H        0.26770    0.04290    0.72560    1.000
    C167     C        0.36711    0.05262    0.73231    1.000
    C168     C        0.42527    0.01643    0.73330    1.000
    H115     H        0.46590    0.03880    0.73710    1.000
    C169     C        0.36989    0.12649    0.73770    1.000
    C170     C        0.32427    0.16673    0.68670    1.000
    H116     H        0.29010    0.14780    0.64810    1.000
    C171     C        0.32974    0.23443    0.69330    1.000
    H117     H        0.29850    0.26020    0.65850    1.000
    C172     C        0.42158    0.22694    0.79740    1.000
    H118     H        0.45470    0.24710    0.83630    1.000
    C173     C        0.41959    0.15888    0.79340    1.000
    H119     H        0.45190    0.13410    0.82830    1.000
    C174     C        0.75321    0.89953    0.75300    1.000
    C175     C        0.81254    0.93833    0.73901    1.000
    C176     C        0.81141    0.00774    0.73352    1.000
    H120     H        0.77200    0.03040    0.73530    1.000
    C177     C        0.86772    0.04350    0.72551    1.000
    C178     C        0.92598    0.00820    0.72114    1.000
    H121     H        0.96390    0.03120    0.71440    1.000
    C179     C        0.92809    0.93917    0.72673    1.000
    C180     C        0.99275    0.90079    0.72910    1.000
    C181     C        0.87097    0.90514    0.73494    1.000
    H122     H        0.87200    0.85900    0.73780    1.000
    C182     C        0.86705    0.11713    0.72600    1.000
    C183     C        0.81020    0.15392    0.72320    1.000
    H123     H        0.76900    0.13230    0.71760    1.000
    C184     C        0.81230    0.22164    0.72840    1.000
    H124     H        0.77180    0.24420    0.72410    1.000
    C185     C        0.92262    0.22188    0.73860    1.000
    H125     H        0.96300    0.24470    0.74280    1.000
    C186     C        0.92432    0.15369    0.73210    1.000
    H126     H        0.96480    0.13250    0.73190    1.000
    N21      N        0.09532    0.83973    0.61416    1.000
    N22      N        0.03591    0.83067    0.49113    1.000
    N23      N        0.67939    0.87677    0.99850    1.000
    N24      N        0.63143    0.87813    0.87017    1.000
    N25      N        0.14936    0.87933    0.86290    1.000
    N26      N        0.20455    0.88109    0.98802    1.000
    N27      N        0.55407    0.85754    0.49110    1.000
    N28      N        0.60124    0.86518    0.61916    1.000
    N29      N        0.37771    0.26582    0.74732    1.000
    N30      N        0.86852    0.25736    0.73927    1.000
    O17      O        0.54165    0.94237    0.73581    1.000
    O18      O        0.48813    0.84876    0.72810    1.000
    O19      O        0.23965    0.85365    0.73577    1.000
    O20      O        0.18634    0.94726    0.71729    1.000
    O21      O        0.69768    0.93013    0.74363    1.000
    O22      O        0.76140    0.84115    0.77340    1.000
    O23      O        0.04449    0.93171    0.72342    1.000
    O24      O        0.99203    0.84041    0.73770    1.000
    Co7      Co       0.87510    0.36450    0.76328    1.000
    Co8      Co       0.38409    0.37184    0.75581    1.000
    C187     C        0.87780    0.29120    0.92330    1.000
    H127     H        0.84020    0.26610    0.90000    1.000
    C188     C        0.91340    0.28420    0.99970    1.000
    H128     H        0.90510    0.25440    0.03750    1.000
    C189     C        0.95709    0.36156    0.93840    1.000
    H129     H        0.98600    0.39450    0.92830    1.000
    C190     C        0.01646    0.34032    0.07840    1.000
    C191     C        0.04018    0.28561    0.12600    1.000
    H130     H        0.02290    0.24340    0.11190    1.000
    C192     C        0.08927    0.29482    0.19370    1.000
    H131     H        0.10480    0.25830    0.22550    1.000
    C193     C        0.11666    0.35702    0.21650    1.000
    C194     C        0.09196    0.41107    0.16740    1.000
    H132     H        0.10960    0.45330    0.18050    1.000
    C195     C        0.04190    0.40223    0.10020    1.000
    H133     H        0.02500    0.43880    0.06910    1.000
    C196     C        0.17016    0.36443    0.29040    1.000
    C197     C        0.21752    0.31400    0.31320    1.000
    H134     H        0.21580    0.27650    0.28140    1.000
    C198     C        0.26660    0.31886    0.38190    1.000
    H135     H        0.29800    0.28490    0.39610    1.000
    C199     C        0.26951    0.37390    0.43010    1.000
    C200     C        0.22380    0.42479    0.40760    1.000
    H136     H        0.22620    0.46250    0.43920    1.000
    C201     C        0.17434    0.42000    0.33830    1.000
    H137     H        0.14360    0.45450    0.32380    1.000
    C202     C        0.31195    0.38536    0.57530    1.000
    H138     H        0.27060    0.39530    0.58680    1.000
    C203     C        0.41570    0.36200    0.58790    1.000
    H139     H        0.46090    0.35320    0.61030    1.000
    C204     C        0.38730    0.36050    0.50940    1.000
    H140     H        0.40870    0.35040    0.46880    1.000
    C205     C        0.79540    0.36370    0.58600    1.000
    H141     H        0.75930    0.34240    0.60000    1.000
    C206     C        0.88860    0.40750    0.59410    1.000
    H142     H        0.93240    0.42250    0.61380    1.000
    C207     C        0.85560    0.41140    0.51830    1.000
    H143     H        0.87120    0.43130    0.47730    1.000
    C208     C        0.74334    0.37532    0.44130    1.000
    C209     C        0.71890    0.31440    0.41190    1.000
    H144     H        0.73530    0.27580    0.43910    1.000
    C210     C        0.67010    0.31050    0.34260    1.000
    H145     H        0.65330    0.26920    0.32380    1.000
    C211     C        0.64547    0.36762    0.29970    1.000
    C212     C        0.66970    0.42770    0.33100    1.000
    H146     H        0.65240    0.46660    0.30520    1.000
    C213     C        0.71940    0.43170    0.40040    1.000
    H147     H        0.73650    0.47290    0.41920    1.000
    C214     C        0.59417    0.36423    0.22320    1.000
    C215     C        0.54960    0.31070    0.20460    1.000
    H148     H        0.55290    0.27570    0.24030    1.000
    C216     C        0.50130    0.30840    0.13530    1.000
    H149     H        0.47180    0.27250    0.12450    1.000
    C217     C        0.49654    0.35998    0.08130    1.000
    C218     C        0.53900    0.41390    0.09800    1.000
    H150     H        0.53500    0.44900    0.06230    1.000
    C219     C        0.58770    0.41510    0.16840    1.000
    H151     H        0.61690    0.45130    0.17910    1.000
    C220     C        0.37980    0.33760    0.99850    1.000
    H152     H        0.35860    0.32320    0.03770    1.000
    C221     C        0.35200    0.34280    0.92090    1.000
    H153     H        0.30730    0.33280    0.89740    1.000
    C222     C        0.45403    0.37359    0.93630    1.000
    H154     H        0.49440    0.38900    0.92640    1.000
    C223     C        0.51150    0.40970    0.76910    1.000
    C224     C        0.57589    0.44775    0.77130    1.000
    C225     C        0.63692    0.41470    0.77550    1.000
    H155     H        0.63810    0.36850    0.77780    1.000
    C226     C        0.76082    0.41481    0.77500    1.000
    C227     C        0.69607    0.44986    0.77640    1.000
    C228     C        0.69309    0.51887    0.77300    1.000
    H156     H        0.73230    0.54290    0.77440    1.000
    C229     C        0.63289    0.55262    0.76769    1.000
    C230     C        0.57473    0.51643    0.76670    1.000
    H157     H        0.53410    0.53880    0.76290    1.000
    C231     C        0.63011    0.62649    0.76230    1.000
    C232     C        0.67573    0.66673    0.81330    1.000
    H158     H        0.70990    0.64780    0.85190    1.000
    C233     C        0.67026    0.73443    0.80670    1.000
    H159     H        0.70150    0.76020    0.84150    1.000
    C234     C        0.57842    0.72694    0.70260    1.000
    H160     H        0.54530    0.74710    0.66370    1.000
    C235     C        0.58041    0.65888    0.70660    1.000
    H161     H        0.54810    0.63410    0.67170    1.000
    C236     C        0.24679    0.39953    0.74700    1.000
    C237     C        0.18746    0.43833    0.76099    1.000
    C238     C        0.18859    0.50774    0.76648    1.000
    H162     H        0.22800    0.53040    0.76470    1.000
    C239     C        0.13228    0.54350    0.77449    1.000
    C240     C        0.07402    0.50820    0.77886    1.000
    H163     H        0.03610    0.53120    0.78560    1.000
    C241     C        0.07191    0.43917    0.77327    1.000
    C242     C        0.00725    0.40079    0.77090    1.000
    C243     C        0.12903    0.40514    0.76506    1.000
    H164     H        0.12800    0.35900    0.76220    1.000
    C244     C        0.13295    0.61713    0.77400    1.000
    C245     C        0.18980    0.65392    0.77680    1.000
    H165     H        0.23100    0.63230    0.78240    1.000
    C246     C        0.18770    0.72164    0.77160    1.000
    H166     H        0.22820    0.74420    0.77590    1.000
    C247     C        0.07738    0.72188    0.76140    1.000
    H167     H        0.03700    0.74470    0.75720    1.000
    C248     C        0.07568    0.65369    0.76790    1.000
    H168     H        0.03520    0.63250    0.76810    1.000
    N31      N        0.90468    0.33973    0.88584    1.000
    N32      N        0.96409    0.33067    0.00887    1.000
    N33      N        0.32061    0.37677    0.50150    1.000
    N34      N        0.36857    0.37813    0.62983    1.000
    N35      N        0.85064    0.37933    0.63710    1.000
    N36      N        0.79545    0.38109    0.51198    1.000
    N37      N        0.44593    0.35754    0.00890    1.000
    N38      N        0.39876    0.36518    0.88084    1.000
    N39      N        0.62229    0.76582    0.75268    1.000
    N40      N        0.13148    0.75736    0.76073    1.000
    O25      O        0.45835    0.44237    0.76419    1.000
    O26      O        0.51187    0.34876    0.77190    1.000
    O27      O        0.76035    0.35365    0.76423    1.000
    O28      O        0.81366    0.44726    0.78271    1.000
    O29      O        0.30232    0.43013    0.75637    1.000
    O30      O        0.23860    0.34115    0.72660    1.000
    O31      O        0.95551    0.43171    0.77658    1.000
    O32      O        0.00797    0.34041    0.76230    1.000
