# CIF file generated by openbabel 3.1.0, see https://openbabel.org
data_I
_chemical_name_common 'image0'
_cell_length_a 28.834
_cell_length_b 16.381
_cell_length_c 23.199
_cell_angle_alpha 90
_cell_angle_beta 92.893
_cell_angle_gamma 90
_space_group_name_H-M_alt 'P 1'
_space_group_name_Hall 'P 1'
loop_
    _symmetry_equiv_pos_as_xyz
    x,y,z
loop_
    _atom_site_label
    _atom_site_type_symbol
    _atom_site_fract_x
    _atom_site_fract_y
    _atom_site_fract_z
    _atom_site_occupancy
    Co1      Co       0.79806    0.71863    0.03516    1.000
    Co2      Co       0.79511    0.60635    0.15666    1.000
    Co3      Co       0.70884    0.75547    0.12981    1.000
    O1       O        0.83554    0.61350    0.02550    1.000
    O2       O        0.81482    0.52597    0.09462    1.000
    O3       O        0.95339    0.30230    0.96141    1.000
    O4       O        0.16622    0.23888    0.03774    1.000
    O5       O        0.14036    0.28590    0.11915    1.000
    O6       O        0.83778    0.78428    0.09316    1.000
    O7       O        0.85230    0.68366    0.15687    1.000
    O8       O        0.75595    0.82299    0.02397    1.000
    O9       O        0.73208    0.87213    0.10698    1.000
    O10      O        0.81055    0.18340    0.97365    1.000
    O11      O        0.72708    0.22210    0.71380    1.000
    O12      O        0.77226    0.33210    0.72645    1.000
    O13      O        0.75527    0.67601    0.09884    1.000
    H1       H        0.73730    0.64210    0.08130    1.000
    C1       C        0.83598    0.54460    0.05009    1.000
    C2       C        0.86526    0.47920    0.02474    1.000
    C3       C        0.86021    0.39830    0.03974    1.000
    H2       H        0.83670    0.38310    0.06490    1.000
    C4       C        0.88925    0.33870    0.01850    1.000
    H3       H        0.88550    0.28300    0.02860    1.000
    C5       C        0.92351    0.36170    0.98260    1.000
    C6       C        0.92878    0.44180    0.96590    1.000
    H4       H        0.95220    0.45670    0.94050    1.000
    C7       C        0.89912    0.50060    0.98700    1.000
    H5       H        0.90210    0.55590    0.97550    1.000
    C8       C        0.13306    0.26620    0.06666    1.000
    C9       C        0.08542    0.27400    0.04060    1.000
    C10      C        0.05030    0.31150    0.07100    1.000
    H6       H        0.05690    0.32980    0.10940    1.000
    C11      C        0.00608    0.32200    0.04560    1.000
    H7       H        0.98260    0.34810    0.06620    1.000
    C12      C        0.99635    0.29430    0.99000    1.000
    C13      C        0.03052    0.25480    0.95990    1.000
    H8       H        0.02350    0.23410    0.92220    1.000
    C14      C        0.07467    0.24570    0.98510    1.000
    H9       H        0.09800    0.21980    0.96420    1.000
    C15      C        0.85821    0.75370    0.13698    1.000
    C16      C        0.89467    0.80590    0.16800    1.000
    C17      C        0.91043    0.87770    0.14379    1.000
    H10      H        0.89700    0.89550    0.10770    1.000
    C18      C        0.94513    0.92350    0.17110    1.000
    H11      H        0.95590    0.97200    0.15380    1.000
    C19      C        0.96406    0.89760    0.22410    1.000
    C20      C        0.94751    0.82860    0.25040    1.000
    H12      H        0.95980    0.81260    0.28750    1.000
    C21      C        0.91269    0.78250    0.22210    1.000
    H13      H        0.90120    0.73490    0.23990    1.000
    C22      C        0.75097    0.88100    0.05963    1.000
    C23      C        0.76855    0.96220    0.04150    1.000
    C24      C        0.74913    0.03470    0.05997    1.000
    H14      H        0.72640    0.03360    0.08820    1.000
    C25      C        0.76278    0.10880    0.03730    1.000
    H15      H        0.74940    0.15850    0.04950    1.000
    C26      C        0.79642    0.10880    0.99659    1.000
    C27      C        0.81758    0.03800    0.97980    1.000
    H16      H        0.84160    0.03980    0.95330    1.000
    C28      C        0.80353    0.96390    0.00186    1.000
    H17      H        0.81760    0.91450    0.99010    1.000
    C29      C        0.75431    0.26780    0.74359    1.000
    C30      C        0.76758    0.24360    0.80484    1.000
    C31      C        0.74611    0.17960    0.83199    1.000
    H18      H        0.72160    0.15100    0.81200    1.000
    C32      C        0.75981    0.15640    0.88791    1.000
    H19      H        0.74510    0.11190    0.90590    1.000
    C33      C        0.79517    0.19920    0.91690    1.000
    C34      C        0.81732    0.26370    0.89070    1.000
    H20      H        0.84180    0.29220    0.91090    1.000
    C35      C        0.80335    0.28590    0.83482    1.000
    H21      H        0.81820    0.33020    0.81680    1.000
    Co4      Co       0.29806    0.21863    0.03516    1.000
    Co5      Co       0.29511    0.10635    0.15666    1.000
    Co6      Co       0.20884    0.25547    0.12981    1.000
    O14      O        0.33554    0.11350    0.02550    1.000
    O15      O        0.31482    0.02597    0.09462    1.000
    O16      O        0.45339    0.80230    0.96141    1.000
    O17      O        0.66622    0.73888    0.03774    1.000
    O18      O        0.64036    0.78590    0.11915    1.000
    O19      O        0.33778    0.28428    0.09316    1.000
    O20      O        0.35230    0.18366    0.15687    1.000
    O21      O        0.25595    0.32299    0.02397    1.000
    O22      O        0.23208    0.37213    0.10698    1.000
    O23      O        0.31055    0.68340    0.97365    1.000
    O24      O        0.22708    0.72210    0.71380    1.000
    O25      O        0.27226    0.83210    0.72645    1.000
    O26      O        0.25527    0.17601    0.09884    1.000
    H22      H        0.23730    0.14210    0.08130    1.000
    C36      C        0.33598    0.04460    0.05009    1.000
    C37      C        0.36526    0.97920    0.02474    1.000
    C38      C        0.36021    0.89830    0.03974    1.000
    H23      H        0.33670    0.88310    0.06490    1.000
    C39      C        0.38925    0.83870    0.01850    1.000
    H24      H        0.38550    0.78300    0.02860    1.000
    C40      C        0.42351    0.86170    0.98260    1.000
    C41      C        0.42878    0.94180    0.96590    1.000
    H25      H        0.45220    0.95670    0.94050    1.000
    C42      C        0.39912    0.00060    0.98700    1.000
    H26      H        0.40210    0.05590    0.97550    1.000
    C43      C        0.63306    0.76620    0.06666    1.000
    C44      C        0.58542    0.77400    0.04060    1.000
    C45      C        0.55030    0.81150    0.07100    1.000
    H27      H        0.55690    0.82980    0.10940    1.000
    C46      C        0.50608    0.82200    0.04560    1.000
    H28      H        0.48260    0.84810    0.06620    1.000
    C47      C        0.49635    0.79430    0.99000    1.000
    C48      C        0.53052    0.75480    0.95990    1.000
    H29      H        0.52350    0.73410    0.92220    1.000
    C49      C        0.57467    0.74570    0.98510    1.000
    H30      H        0.59800    0.71980    0.96420    1.000
    C50      C        0.35821    0.25370    0.13698    1.000
    C51      C        0.39467    0.30590    0.16800    1.000
    C52      C        0.41043    0.37770    0.14379    1.000
    H31      H        0.39700    0.39550    0.10770    1.000
    C53      C        0.44513    0.42350    0.17110    1.000
    H32      H        0.45590    0.47200    0.15380    1.000
    C54      C        0.46406    0.39760    0.22410    1.000
    C55      C        0.44751    0.32860    0.25040    1.000
    H33      H        0.45980    0.31260    0.28750    1.000
    C56      C        0.41269    0.28250    0.22210    1.000
    H34      H        0.40120    0.23490    0.23990    1.000
    C57      C        0.25097    0.38100    0.05963    1.000
    C58      C        0.26855    0.46220    0.04150    1.000
    C59      C        0.24913    0.53470    0.05997    1.000
    H35      H        0.22640    0.53360    0.08820    1.000
    C60      C        0.26278    0.60880    0.03730    1.000
    H36      H        0.24940    0.65850    0.04950    1.000
    C61      C        0.29642    0.60880    0.99659    1.000
    C62      C        0.31758    0.53800    0.97980    1.000
    H37      H        0.34160    0.53980    0.95330    1.000
    C63      C        0.30353    0.46390    0.00186    1.000
    H38      H        0.31760    0.41450    0.99010    1.000
    C64      C        0.25431    0.76780    0.74359    1.000
    C65      C        0.26758    0.74360    0.80484    1.000
    C66      C        0.24611    0.67960    0.83199    1.000
    H39      H        0.22160    0.65100    0.81200    1.000
    C67      C        0.25981    0.65640    0.88791    1.000
    H40      H        0.24510    0.61190    0.90590    1.000
    C68      C        0.29517    0.69920    0.91690    1.000
    C69      C        0.31732    0.76370    0.89070    1.000
    H41      H        0.34180    0.79220    0.91090    1.000
    C70      C        0.30335    0.78590    0.83482    1.000
    H42      H        0.31820    0.83020    0.81680    1.000
    Co7      Co       0.20194    0.71863    0.46484    1.000
    Co8      Co       0.20489    0.60635    0.34334    1.000
    Co9      Co       0.29116    0.75547    0.37019    1.000
    O27      O        0.16446    0.61350    0.47450    1.000
    O28      O        0.18518    0.52597    0.40538    1.000
    O29      O        0.04661    0.30230    0.53859    1.000
    O30      O        0.83378    0.23888    0.46226    1.000
    O31      O        0.85964    0.28590    0.38085    1.000
    O32      O        0.16222    0.78428    0.40684    1.000
    O33      O        0.14770    0.68366    0.34313    1.000
    O34      O        0.24405    0.82299    0.47603    1.000
    O35      O        0.26792    0.87213    0.39302    1.000
    O36      O        0.18945    0.18340    0.52635    1.000
    O37      O        0.27292    0.22210    0.78620    1.000
    O38      O        0.22774    0.33210    0.77355    1.000
    O39      O        0.24473    0.67601    0.40116    1.000
    H43      H        0.26270    0.64210    0.41870    1.000
    C71      C        0.16402    0.54460    0.44991    1.000
    C72      C        0.13474    0.47920    0.47526    1.000
    C73      C        0.13979    0.39830    0.46026    1.000
    H44      H        0.16330    0.38310    0.43510    1.000
    C74      C        0.11075    0.33870    0.48150    1.000
    H45      H        0.11450    0.28300    0.47140    1.000
    C75      C        0.07649    0.36170    0.51740    1.000
    C76      C        0.07122    0.44180    0.53410    1.000
    H46      H        0.04780    0.45670    0.55950    1.000
    C77      C        0.10088    0.50060    0.51300    1.000
    H47      H        0.09790    0.55590    0.52450    1.000
    C78      C        0.86694    0.26620    0.43334    1.000
    C79      C        0.91458    0.27400    0.45940    1.000
    C80      C        0.94970    0.31150    0.42900    1.000
    H48      H        0.94310    0.32980    0.39060    1.000
    C81      C        0.99392    0.32200    0.45440    1.000
    H49      H        0.01740    0.34810    0.43380    1.000
    C82      C        0.00365    0.29430    0.51000    1.000
    C83      C        0.96948    0.25480    0.54010    1.000
    H50      H        0.97650    0.23410    0.57780    1.000
    C84      C        0.92533    0.24570    0.51490    1.000
    H51      H        0.90200    0.21980    0.53580    1.000
    C85      C        0.14179    0.75370    0.36302    1.000
    C86      C        0.10533    0.80590    0.33200    1.000
    C87      C        0.08957    0.87770    0.35621    1.000
    H52      H        0.10300    0.89550    0.39230    1.000
    C88      C        0.05487    0.92350    0.32890    1.000
    H53      H        0.04410    0.97200    0.34620    1.000
    C89      C        0.03594    0.89760    0.27590    1.000
    C90      C        0.05249    0.82860    0.24960    1.000
    H54      H        0.04020    0.81260    0.21250    1.000
    C91      C        0.08731    0.78250    0.27790    1.000
    H55      H        0.09880    0.73490    0.26010    1.000
    C92      C        0.24903    0.88100    0.44037    1.000
    C93      C        0.23145    0.96220    0.45850    1.000
    C94      C        0.25087    0.03470    0.44003    1.000
    H56      H        0.27360    0.03360    0.41180    1.000
    C95      C        0.23722    0.10880    0.46270    1.000
    H57      H        0.25060    0.15850    0.45050    1.000
    C96      C        0.20358    0.10880    0.50341    1.000
    C97      C        0.18242    0.03800    0.52020    1.000
    H58      H        0.15840    0.03980    0.54670    1.000
    C98      C        0.19647    0.96390    0.49814    1.000
    H59      H        0.18240    0.91450    0.50990    1.000
    C99      C        0.24569    0.26780    0.75641    1.000
    C100     C        0.23242    0.24360    0.69516    1.000
    C101     C        0.25389    0.17960    0.66801    1.000
    H60      H        0.27840    0.15100    0.68800    1.000
    C102     C        0.24019    0.15640    0.61209    1.000
    H61      H        0.25490    0.11190    0.59410    1.000
    C103     C        0.20483    0.19920    0.58310    1.000
    C104     C        0.18268    0.26370    0.60930    1.000
    H62      H        0.15820    0.29220    0.58910    1.000
    C105     C        0.19665    0.28590    0.66518    1.000
    H63      H        0.18180    0.33020    0.68320    1.000
    Co10     Co       0.70194    0.21863    0.46484    1.000
    Co11     Co       0.70489    0.10635    0.34334    1.000
    Co12     Co       0.79116    0.25547    0.37019    1.000
    O40      O        0.66446    0.11350    0.47450    1.000
    O41      O        0.68518    0.02597    0.40538    1.000
    O42      O        0.54661    0.80230    0.53859    1.000
    O43      O        0.33378    0.73888    0.46226    1.000
    O44      O        0.35964    0.78590    0.38085    1.000
    O45      O        0.66222    0.28428    0.40684    1.000
    O46      O        0.64770    0.18366    0.34313    1.000
    O47      O        0.74405    0.32299    0.47603    1.000
    O48      O        0.76792    0.37213    0.39302    1.000
    O49      O        0.68945    0.68340    0.52635    1.000
    O50      O        0.77292    0.72210    0.78620    1.000
    O51      O        0.72774    0.83210    0.77355    1.000
    O52      O        0.74473    0.17601    0.40116    1.000
    H64      H        0.76270    0.14210    0.41870    1.000
    C106     C        0.66402    0.04460    0.44991    1.000
    C107     C        0.63474    0.97920    0.47526    1.000
    C108     C        0.63979    0.89830    0.46026    1.000
    H65      H        0.66330    0.88310    0.43510    1.000
    C109     C        0.61075    0.83870    0.48150    1.000
    H66      H        0.61450    0.78300    0.47140    1.000
    C110     C        0.57649    0.86170    0.51740    1.000
    C111     C        0.57122    0.94180    0.53410    1.000
    H67      H        0.54780    0.95670    0.55950    1.000
    C112     C        0.60088    0.00060    0.51300    1.000
    H68      H        0.59790    0.05590    0.52450    1.000
    C113     C        0.36694    0.76620    0.43334    1.000
    C114     C        0.41458    0.77400    0.45940    1.000
    C115     C        0.44970    0.81150    0.42900    1.000
    H69      H        0.44310    0.82980    0.39060    1.000
    C116     C        0.49392    0.82200    0.45440    1.000
    H70      H        0.51740    0.84810    0.43380    1.000
    C117     C        0.50365    0.79430    0.51000    1.000
    C118     C        0.46948    0.75480    0.54010    1.000
    H71      H        0.47650    0.73410    0.57780    1.000
    C119     C        0.42533    0.74570    0.51490    1.000
    H72      H        0.40200    0.71980    0.53580    1.000
    C120     C        0.64179    0.25370    0.36302    1.000
    C121     C        0.60533    0.30590    0.33200    1.000
    C122     C        0.58957    0.37770    0.35621    1.000
    H73      H        0.60300    0.39550    0.39230    1.000
    C123     C        0.55487    0.42350    0.32890    1.000
    H74      H        0.54410    0.47200    0.34620    1.000
    C124     C        0.53594    0.39760    0.27590    1.000
    C125     C        0.55249    0.32860    0.24960    1.000
    H75      H        0.54020    0.31260    0.21250    1.000
    C126     C        0.58731    0.28250    0.27790    1.000
    H76      H        0.59880    0.23490    0.26010    1.000
    C127     C        0.74903    0.38100    0.44037    1.000
    C128     C        0.73145    0.46220    0.45850    1.000
    C129     C        0.75087    0.53470    0.44003    1.000
    H77      H        0.77360    0.53360    0.41180    1.000
    C130     C        0.73722    0.60880    0.46270    1.000
    H78      H        0.75060    0.65850    0.45050    1.000
    C131     C        0.70358    0.60880    0.50341    1.000
    C132     C        0.68242    0.53800    0.52020    1.000
    H79      H        0.65840    0.53980    0.54670    1.000
    C133     C        0.69647    0.46390    0.49814    1.000
    H80      H        0.68240    0.41450    0.50990    1.000
    C134     C        0.74569    0.76780    0.75641    1.000
    C135     C        0.73242    0.74360    0.69516    1.000
    C136     C        0.75389    0.67960    0.66801    1.000
    H81      H        0.77840    0.65100    0.68800    1.000
    C137     C        0.74019    0.65640    0.61209    1.000
    H82      H        0.75490    0.61190    0.59410    1.000
    C138     C        0.70483    0.69920    0.58310    1.000
    C139     C        0.68268    0.76370    0.60930    1.000
    H83      H        0.65820    0.79220    0.58910    1.000
    C140     C        0.69665    0.78590    0.66518    1.000
    H84      H        0.68180    0.83020    0.68320    1.000
    Co13     Co       0.20194    0.28137    0.96484    1.000
    Co14     Co       0.20489    0.39365    0.84334    1.000
    Co15     Co       0.29116    0.24453    0.87019    1.000
    O53      O        0.16446    0.38650    0.97450    1.000
    O54      O        0.18518    0.47403    0.90538    1.000
    O55      O        0.04661    0.69770    0.03859    1.000
    O56      O        0.83378    0.76112    0.96226    1.000
    O57      O        0.85964    0.71410    0.88085    1.000
    O58      O        0.16222    0.21572    0.90684    1.000
    O59      O        0.14770    0.31634    0.84313    1.000
    O60      O        0.24405    0.17701    0.97603    1.000
    O61      O        0.26792    0.12787    0.89302    1.000
    O62      O        0.18945    0.81660    0.02635    1.000
    O63      O        0.27292    0.77790    0.28620    1.000
    O64      O        0.22774    0.66790    0.27355    1.000
    O65      O        0.24473    0.32399    0.90116    1.000
    H85      H        0.26270    0.35790    0.91870    1.000
    C141     C        0.16402    0.45540    0.94991    1.000
    C142     C        0.13474    0.52080    0.97526    1.000
    C143     C        0.13979    0.60170    0.96026    1.000
    H86      H        0.16330    0.61690    0.93510    1.000
    C144     C        0.11075    0.66130    0.98150    1.000
    H87      H        0.11450    0.71700    0.97140    1.000
    C145     C        0.07649    0.63830    0.01740    1.000
    C146     C        0.07122    0.55820    0.03410    1.000
    H88      H        0.04780    0.54330    0.05950    1.000
    C147     C        0.10088    0.49940    0.01300    1.000
    H89      H        0.09790    0.44410    0.02450    1.000
    C148     C        0.86694    0.73380    0.93334    1.000
    C149     C        0.91458    0.72600    0.95940    1.000
    C150     C        0.94970    0.68850    0.92900    1.000
    H90      H        0.94310    0.67020    0.89060    1.000
    C151     C        0.99392    0.67800    0.95440    1.000
    H91      H        0.01740    0.65190    0.93380    1.000
    C152     C        0.00365    0.70570    0.01000    1.000
    C153     C        0.96948    0.74520    0.04010    1.000
    H92      H        0.97650    0.76590    0.07780    1.000
    C154     C        0.92533    0.75430    0.01490    1.000
    H93      H        0.90200    0.78020    0.03580    1.000
    C155     C        0.14179    0.24630    0.86302    1.000
    C156     C        0.10533    0.19410    0.83200    1.000
    C157     C        0.08957    0.12230    0.85621    1.000
    H94      H        0.10300    0.10450    0.89230    1.000
    C158     C        0.05487    0.07650    0.82890    1.000
    H95      H        0.04410    0.02800    0.84620    1.000
    C159     C        0.03594    0.10240    0.77590    1.000
    C160     C        0.05249    0.17140    0.74960    1.000
    H96      H        0.04020    0.18740    0.71250    1.000
    C161     C        0.08731    0.21750    0.77790    1.000
    H97      H        0.09880    0.26510    0.76010    1.000
    C162     C        0.24903    0.11900    0.94037    1.000
    C163     C        0.23145    0.03780    0.95850    1.000
    C164     C        0.25087    0.96530    0.94003    1.000
    H98      H        0.27360    0.96640    0.91180    1.000
    C165     C        0.23722    0.89120    0.96270    1.000
    H99      H        0.25060    0.84150    0.95050    1.000
    C166     C        0.20358    0.89120    0.00341    1.000
    C167     C        0.18242    0.96200    0.02020    1.000
    H100     H        0.15840    0.96020    0.04670    1.000
    C168     C        0.19647    0.03610    0.99814    1.000
    H101     H        0.18240    0.08550    0.00990    1.000
    C169     C        0.24569    0.73220    0.25641    1.000
    C170     C        0.23242    0.75640    0.19516    1.000
    C171     C        0.25389    0.82040    0.16801    1.000
    H102     H        0.27840    0.84900    0.18800    1.000
    C172     C        0.24019    0.84360    0.11209    1.000
    H103     H        0.25490    0.88810    0.09410    1.000
    C173     C        0.20483    0.80080    0.08310    1.000
    C174     C        0.18268    0.73630    0.10930    1.000
    H104     H        0.15820    0.70780    0.08910    1.000
    C175     C        0.19665    0.71410    0.16518    1.000
    H105     H        0.18180    0.66980    0.18320    1.000
    Co16     Co       0.70194    0.78137    0.96484    1.000
    Co17     Co       0.70489    0.89365    0.84334    1.000
    Co18     Co       0.79116    0.74453    0.87019    1.000
    O66      O        0.66446    0.88650    0.97450    1.000
    O67      O        0.68518    0.97403    0.90538    1.000
    O68      O        0.54661    0.19770    0.03859    1.000
    O69      O        0.33378    0.26112    0.96226    1.000
    O70      O        0.35964    0.21410    0.88085    1.000
    O71      O        0.66222    0.71572    0.90684    1.000
    O72      O        0.64770    0.81634    0.84313    1.000
    O73      O        0.74405    0.67701    0.97603    1.000
    O74      O        0.76792    0.62787    0.89302    1.000
    O75      O        0.68945    0.31660    0.02635    1.000
    O76      O        0.77292    0.27790    0.28620    1.000
    O77      O        0.72774    0.16790    0.27355    1.000
    O78      O        0.74473    0.82399    0.90116    1.000
    H106     H        0.76270    0.85790    0.91870    1.000
    C176     C        0.66402    0.95540    0.94991    1.000
    C177     C        0.63474    0.02080    0.97526    1.000
    C178     C        0.63979    0.10170    0.96026    1.000
    H107     H        0.66330    0.11690    0.93510    1.000
    C179     C        0.61075    0.16130    0.98150    1.000
    H108     H        0.61450    0.21700    0.97140    1.000
    C180     C        0.57649    0.13830    0.01740    1.000
    C181     C        0.57122    0.05820    0.03410    1.000
    H109     H        0.54780    0.04330    0.05950    1.000
    C182     C        0.60088    0.99940    0.01300    1.000
    H110     H        0.59790    0.94410    0.02450    1.000
    C183     C        0.36694    0.23380    0.93334    1.000
    C184     C        0.41458    0.22600    0.95940    1.000
    C185     C        0.44970    0.18850    0.92900    1.000
    H111     H        0.44310    0.17020    0.89060    1.000
    C186     C        0.49392    0.17800    0.95440    1.000
    H112     H        0.51740    0.15190    0.93380    1.000
    C187     C        0.50365    0.20570    0.01000    1.000
    C188     C        0.46948    0.24520    0.04010    1.000
    H113     H        0.47650    0.26590    0.07780    1.000
    C189     C        0.42533    0.25430    0.01490    1.000
    H114     H        0.40200    0.28020    0.03580    1.000
    C190     C        0.64179    0.74630    0.86302    1.000
    C191     C        0.60533    0.69410    0.83200    1.000
    C192     C        0.58957    0.62230    0.85621    1.000
    H115     H        0.60300    0.60450    0.89230    1.000
    C193     C        0.55487    0.57650    0.82890    1.000
    H116     H        0.54410    0.52800    0.84620    1.000
    C194     C        0.53594    0.60240    0.77590    1.000
    C195     C        0.55249    0.67140    0.74960    1.000
    H117     H        0.54020    0.68740    0.71250    1.000
    C196     C        0.58731    0.71750    0.77790    1.000
    H118     H        0.59880    0.76510    0.76010    1.000
    C197     C        0.74903    0.61900    0.94037    1.000
    C198     C        0.73145    0.53780    0.95850    1.000
    C199     C        0.75087    0.46530    0.94003    1.000
    H119     H        0.77360    0.46640    0.91180    1.000
    C200     C        0.73722    0.39120    0.96270    1.000
    H120     H        0.75060    0.34150    0.95050    1.000
    C201     C        0.70358    0.39120    0.00341    1.000
    C202     C        0.68242    0.46200    0.02020    1.000
    H121     H        0.65840    0.46020    0.04670    1.000
    C203     C        0.69647    0.53610    0.99814    1.000
    H122     H        0.68240    0.58550    0.00990    1.000
    C204     C        0.74569    0.23220    0.25641    1.000
    C205     C        0.73242    0.25640    0.19516    1.000
    C206     C        0.75389    0.32040    0.16801    1.000
    H123     H        0.77840    0.34900    0.18800    1.000
    C207     C        0.74019    0.34360    0.11209    1.000
    H124     H        0.75490    0.38810    0.09410    1.000
    C208     C        0.70483    0.30080    0.08310    1.000
    C209     C        0.68268    0.23630    0.10930    1.000
    H125     H        0.65820    0.20780    0.08910    1.000
    C210     C        0.69665    0.21410    0.16518    1.000
    H126     H        0.68180    0.16980    0.18320    1.000
    Co19     Co       0.79806    0.28137    0.53516    1.000
    Co20     Co       0.79511    0.39365    0.65666    1.000
    Co21     Co       0.70884    0.24453    0.62981    1.000
    O79      O        0.83554    0.38650    0.52550    1.000
    O80      O        0.81482    0.47403    0.59462    1.000
    O81      O        0.95339    0.69770    0.46141    1.000
    O82      O        0.16622    0.76112    0.53774    1.000
    O83      O        0.14036    0.71410    0.61915    1.000
    O84      O        0.83778    0.21572    0.59316    1.000
    O85      O        0.85230    0.31634    0.65687    1.000
    O86      O        0.75595    0.17701    0.52397    1.000
    O87      O        0.73208    0.12787    0.60698    1.000
    O88      O        0.81055    0.81660    0.47365    1.000
    O89      O        0.72708    0.77790    0.21380    1.000
    O90      O        0.77226    0.66790    0.22645    1.000
    O91      O        0.75527    0.32399    0.59884    1.000
    H127     H        0.73730    0.35790    0.58130    1.000
    C211     C        0.83598    0.45540    0.55009    1.000
    C212     C        0.86526    0.52080    0.52474    1.000
    C213     C        0.86021    0.60170    0.53974    1.000
    H128     H        0.83670    0.61690    0.56490    1.000
    C214     C        0.88925    0.66130    0.51850    1.000
    H129     H        0.88550    0.71700    0.52860    1.000
    C215     C        0.92351    0.63830    0.48260    1.000
    C216     C        0.92878    0.55820    0.46590    1.000
    H130     H        0.95220    0.54330    0.44050    1.000
    C217     C        0.89912    0.49940    0.48700    1.000
    H131     H        0.90210    0.44410    0.47550    1.000
    C218     C        0.13306    0.73380    0.56666    1.000
    C219     C        0.08542    0.72600    0.54060    1.000
    C220     C        0.05030    0.68850    0.57100    1.000
    H132     H        0.05690    0.67020    0.60940    1.000
    C221     C        0.00608    0.67800    0.54560    1.000
    H133     H        0.98260    0.65190    0.56620    1.000
    C222     C        0.99635    0.70570    0.49000    1.000
    C223     C        0.03052    0.74520    0.45990    1.000
    H134     H        0.02350    0.76590    0.42220    1.000
    C224     C        0.07467    0.75430    0.48510    1.000
    H135     H        0.09800    0.78020    0.46420    1.000
    C225     C        0.85821    0.24630    0.63698    1.000
    C226     C        0.89467    0.19410    0.66800    1.000
    C227     C        0.91043    0.12230    0.64379    1.000
    H136     H        0.89700    0.10450    0.60770    1.000
    C228     C        0.94513    0.07650    0.67110    1.000
    H137     H        0.95590    0.02800    0.65380    1.000
    C229     C        0.96406    0.10240    0.72410    1.000
    C230     C        0.94751    0.17140    0.75040    1.000
    H138     H        0.95980    0.18740    0.78750    1.000
    C231     C        0.91269    0.21750    0.72210    1.000
    H139     H        0.90120    0.26510    0.73990    1.000
    C232     C        0.75097    0.11900    0.55963    1.000
    C233     C        0.76855    0.03780    0.54150    1.000
    C234     C        0.74913    0.96530    0.55997    1.000
    H140     H        0.72640    0.96640    0.58820    1.000
    C235     C        0.76278    0.89120    0.53730    1.000
    H141     H        0.74940    0.84150    0.54950    1.000
    C236     C        0.79642    0.89120    0.49659    1.000
    C237     C        0.81758    0.96200    0.47980    1.000
    H142     H        0.84160    0.96020    0.45330    1.000
    C238     C        0.80353    0.03610    0.50186    1.000
    H143     H        0.81760    0.08550    0.49010    1.000
    C239     C        0.75431    0.73220    0.24359    1.000
    C240     C        0.76758    0.75640    0.30484    1.000
    C241     C        0.74611    0.82040    0.33199    1.000
    H144     H        0.72160    0.84900    0.31200    1.000
    C242     C        0.75981    0.84360    0.38791    1.000
    H145     H        0.74510    0.88810    0.40590    1.000
    C243     C        0.79517    0.80080    0.41690    1.000
    C244     C        0.81732    0.73630    0.39070    1.000
    H146     H        0.84180    0.70780    0.41090    1.000
    C245     C        0.80335    0.71410    0.33482    1.000
    H147     H        0.81820    0.66980    0.31680    1.000
    Co22     Co       0.29806    0.78137    0.53516    1.000
    Co23     Co       0.29511    0.89365    0.65666    1.000
    Co24     Co       0.20884    0.74453    0.62981    1.000
    O92      O        0.33554    0.88650    0.52550    1.000
    O93      O        0.31482    0.97403    0.59462    1.000
    O94      O        0.45339    0.19770    0.46141    1.000
    O95      O        0.66622    0.26112    0.53774    1.000
    O96      O        0.64036    0.21410    0.61915    1.000
    O97      O        0.33778    0.71572    0.59316    1.000
    O98      O        0.35230    0.81634    0.65687    1.000
    O99      O        0.25595    0.67701    0.52397    1.000
    O100     O        0.23208    0.62787    0.60698    1.000
    O101     O        0.31055    0.31660    0.47365    1.000
    O102     O        0.22708    0.27790    0.21380    1.000
    O103     O        0.27226    0.16790    0.22645    1.000
    O104     O        0.25527    0.82399    0.59884    1.000
    H148     H        0.23730    0.85790    0.58130    1.000
    C246     C        0.33598    0.95540    0.55009    1.000
    C247     C        0.36526    0.02080    0.52474    1.000
    C248     C        0.36021    0.10170    0.53974    1.000
    H149     H        0.33670    0.11690    0.56490    1.000
    C249     C        0.38925    0.16130    0.51850    1.000
    H150     H        0.38550    0.21700    0.52860    1.000
    C250     C        0.42351    0.13830    0.48260    1.000
    C251     C        0.42878    0.05820    0.46590    1.000
    H151     H        0.45220    0.04330    0.44050    1.000
    C252     C        0.39912    0.99940    0.48700    1.000
    H152     H        0.40210    0.94410    0.47550    1.000
    C253     C        0.63306    0.23380    0.56666    1.000
    C254     C        0.58542    0.22600    0.54060    1.000
    C255     C        0.55030    0.18850    0.57100    1.000
    H153     H        0.55690    0.17020    0.60940    1.000
    C256     C        0.50608    0.17800    0.54560    1.000
    H154     H        0.48260    0.15190    0.56620    1.000
    C257     C        0.49635    0.20570    0.49000    1.000
    C258     C        0.53052    0.24520    0.45990    1.000
    H155     H        0.52350    0.26590    0.42220    1.000
    C259     C        0.57467    0.25430    0.48510    1.000
    H156     H        0.59800    0.28020    0.46420    1.000
    C260     C        0.35821    0.74630    0.63698    1.000
    C261     C        0.39467    0.69410    0.66800    1.000
    C262     C        0.41043    0.62230    0.64379    1.000
    H157     H        0.39700    0.60450    0.60770    1.000
    C263     C        0.44513    0.57650    0.67110    1.000
    H158     H        0.45590    0.52800    0.65380    1.000
    C264     C        0.46406    0.60240    0.72410    1.000
    C265     C        0.44751    0.67140    0.75040    1.000
    H159     H        0.45980    0.68740    0.78750    1.000
    C266     C        0.41269    0.71750    0.72210    1.000
    H160     H        0.40120    0.76510    0.73990    1.000
    C267     C        0.25097    0.61900    0.55963    1.000
    C268     C        0.26855    0.53780    0.54150    1.000
    C269     C        0.24913    0.46530    0.55997    1.000
    H161     H        0.22640    0.46640    0.58820    1.000
    C270     C        0.26278    0.39120    0.53730    1.000
    H162     H        0.24940    0.34150    0.54950    1.000
    C271     C        0.29642    0.39120    0.49659    1.000
    C272     C        0.31758    0.46200    0.47980    1.000
    H163     H        0.34160    0.46020    0.45330    1.000
    C273     C        0.30353    0.53610    0.50186    1.000
    H164     H        0.31760    0.58550    0.49010    1.000
    C274     C        0.25431    0.23220    0.24359    1.000
    C275     C        0.26758    0.25640    0.30484    1.000
    C276     C        0.24611    0.32040    0.33199    1.000
    H165     H        0.22160    0.34900    0.31200    1.000
    C277     C        0.25981    0.34360    0.38791    1.000
    H166     H        0.24510    0.38810    0.40590    1.000
    C278     C        0.29517    0.30080    0.41690    1.000
    C279     C        0.31732    0.23630    0.39070    1.000
    H167     H        0.34180    0.20780    0.41090    1.000
    C280     C        0.30335    0.21410    0.33482    1.000
    H168     H        0.31820    0.16980    0.31680    1.000
    O105     O        0.00000    0.94330    0.25000    1.000
    O106     O        0.50000    0.44330    0.25000    1.000
    O107     O        0.00000    0.05670    0.75000    1.000
    O108     O        0.50000    0.55670    0.75000    1.000
