# CIF file generated by openbabel 3.1.0, see https://openbabel.org
data_I
_chemical_name_common 'image0'
_cell_length_a 10.2565
_cell_length_b 8.2892
_cell_length_c 10.4595
_cell_angle_alpha 90
_cell_angle_beta 90
_cell_angle_gamma 90
_space_group_name_H-M_alt 'P 1'
_space_group_name_Hall 'P 1'
loop_
    _symmetry_equiv_pos_as_xyz
    x,y,z
loop_
    _atom_site_label
    _atom_site_type_symbol
    _atom_site_fract_x
    _atom_site_fract_y
    _atom_site_fract_z
    _atom_site_occupancy
    P1       P        0.66730    0.06690    0.37390    1.000
    O1       O        0.77090    0.07490    0.27010    1.000
    O2       O        0.52920    0.06950    0.31770    1.000
    O3       O        0.68850    0.92880    0.46350    1.000
    H1       H        0.00660    0.18320    0.98290    1.000
    H2       H        0.80290    0.15220    0.60530    1.000
    P2       P        0.83270    0.93310    0.87390    1.000
    O4       O        0.72910    0.92510    0.77010    1.000
    O5       O        0.97080    0.93050    0.81770    1.000
    O6       O        0.81150    0.07120    0.96350    1.000
    H3       H        0.49340    0.81680    0.48290    1.000
    H4       H        0.69710    0.84780    0.10530    1.000
    P3       P        0.33270    0.56690    0.62610    1.000
    O7       O        0.22910    0.57490    0.72990    1.000
    O8       O        0.47080    0.56950    0.68230    1.000
    O9       O        0.31150    0.42880    0.53650    1.000
    H5       H        0.99340    0.68320    0.01710    1.000
    H6       H        0.19710    0.65220    0.39470    1.000
    P4       P        0.16730    0.43310    0.12610    1.000
    O10      O        0.27090    0.42510    0.22990    1.000
    O11      O        0.02920    0.43050    0.18230    1.000
    O12      O        0.18850    0.57120    0.03650    1.000
    H7       H        0.50660    0.31680    0.51710    1.000
    H8       H        0.30290    0.34780    0.89470    1.000
    P5       P        0.33270    0.93310    0.62610    1.000
    O13      O        0.22910    0.92510    0.72990    1.000
    O14      O        0.47080    0.93050    0.68230    1.000
    O15      O        0.31150    0.07120    0.53650    1.000
    H9       H        0.99340    0.81680    0.01710    1.000
    H10      H        0.19710    0.84780    0.39470    1.000
    P6       P        0.16730    0.06690    0.12610    1.000
    O16      O        0.27090    0.07490    0.22990    1.000
    O17      O        0.02920    0.06950    0.18230    1.000
    O18      O        0.18850    0.92880    0.03650    1.000
    H11      H        0.50660    0.18320    0.51710    1.000
    H12      H        0.30290    0.15220    0.89470    1.000
    P7       P        0.66730    0.43310    0.37390    1.000
    O19      O        0.77090    0.42510    0.27010    1.000
    O20      O        0.52920    0.43050    0.31770    1.000
    O21      O        0.68850    0.57120    0.46350    1.000
    H13      H        0.00660    0.31680    0.98290    1.000
    H14      H        0.80290    0.34780    0.60530    1.000
    P8       P        0.83270    0.56690    0.87390    1.000
    O22      O        0.72910    0.57490    0.77010    1.000
    O23      O        0.97080    0.56950    0.81770    1.000
    O24      O        0.81150    0.42880    0.96350    1.000
    H15      H        0.49340    0.68320    0.48290    1.000
    H16      H        0.69710    0.65220    0.10530    1.000
    Dy1      Dy       0.86000    0.25000    0.12022    1.000
    O25      O        0.55760    0.25000    0.54610    1.000
    C1       C        0.67890    0.25000    0.46850    1.000
    C2       C        0.80000    0.25000    0.55600    1.000
    H17      H        0.87670    0.25000    0.50360    1.000
    Dy2      Dy       0.64000    0.75000    0.62022    1.000
    O26      O        0.94240    0.75000    0.04610    1.000
    C3       C        0.82110    0.75000    0.96850    1.000
    C4       C        0.70000    0.75000    0.05600    1.000
    H18      H        0.62330    0.75000    0.00360    1.000
    Dy3      Dy       0.14000    0.75000    0.87978    1.000
    O27      O        0.44240    0.75000    0.45390    1.000
    C5       C        0.32110    0.75000    0.53150    1.000
    C6       C        0.20000    0.75000    0.44400    1.000
    H19      H        0.12330    0.75000    0.49640    1.000
    Dy4      Dy       0.36000    0.25000    0.37978    1.000
    O28      O        0.05760    0.25000    0.95390    1.000
    C7       C        0.17890    0.25000    0.03150    1.000
    C8       C        0.30000    0.25000    0.94400    1.000
    H20      H        0.37670    0.25000    0.99640    1.000
