# CIF file generated by openbabel 3.1.0, see https://openbabel.org
data_I
_chemical_name_common 'image0'
_cell_length_a 36.815
_cell_length_b 6.9805
_cell_length_c 6.2024
_cell_angle_alpha 90
_cell_angle_beta 97.42
_cell_angle_gamma 90
_space_group_name_H-M_alt 'P 1'
_space_group_name_Hall 'P 1'
loop_
    _symmetry_equiv_pos_as_xyz
    x,y,z
loop_
    _atom_site_label
    _atom_site_type_symbol
    _atom_site_fract_x
    _atom_site_fract_y
    _atom_site_fract_z
    _atom_site_occupancy
    O1       O        0.34620    0.44660    0.51530    1.000
    O2       O        0.20069    0.19060    0.21290    1.000
    O3       O        0.22415    0.34500    0.62230    1.000
    N1       N        0.45313    0.48300    0.09500    1.000
    C1       C        0.44920    0.42500    0.30370    1.000
    H1       H        0.47050    0.38390    0.40130    1.000
    C2       C        0.41500    0.42400    0.37300    1.000
    H2       H        0.41170    0.37230    0.51370    1.000
    C3       C        0.38860    0.54460    0.02560    1.000
    H3       H        0.36710    0.57120    0.92290    1.000
    C4       C        0.42290    0.55100    0.95770    1.000
    H4       H        0.42590    0.60220    0.81620    1.000
    C5       C        0.17364    0.41480    0.97310    1.000
    C6       C        0.13990    0.40520    0.05440    1.000
    H5       H        0.13870    0.35580    0.19800    1.000
    C7       C        0.10799    0.46770    0.92670    1.000
    H6       H        0.08490    0.46160    0.98270    1.000
    C8       C        0.10974    0.53910    0.71740    1.000
    H7       H        0.08770    0.57760    0.62810    1.000
    C9       C        0.14350    0.55460    0.63740    1.000
    H8       H        0.14440    0.60370    0.49350    1.000
    C10      C        0.20650    0.35900    0.12900    1.000
    O4       O        0.84620    0.94660    0.51530    1.000
    O5       O        0.70069    0.69060    0.21290    1.000
    O6       O        0.72415    0.84500    0.62230    1.000
    N2       N        0.95313    0.98300    0.09500    1.000
    C11      C        0.94920    0.92500    0.30370    1.000
    H9       H        0.97050    0.88390    0.40130    1.000
    C12      C        0.91500    0.92400    0.37300    1.000
    H10      H        0.91170    0.87230    0.51370    1.000
    C13      C        0.88860    0.04460    0.02560    1.000
    H11      H        0.86710    0.07120    0.92290    1.000
    C14      C        0.92290    0.05100    0.95770    1.000
    H12      H        0.92590    0.10220    0.81620    1.000
    C15      C        0.67364    0.91480    0.97310    1.000
    C16      C        0.63990    0.90520    0.05440    1.000
    H13      H        0.63870    0.85580    0.19800    1.000
    C17      C        0.60799    0.96770    0.92670    1.000
    H14      H        0.58490    0.96160    0.98270    1.000
    C18      C        0.60974    0.03910    0.71740    1.000
    H15      H        0.58770    0.07760    0.62810    1.000
    C19      C        0.64350    0.05460    0.63740    1.000
    H16      H        0.64440    0.10370    0.49350    1.000
    C20      C        0.70650    0.85900    0.12900    1.000
    O7       O        0.65380    0.44660    0.48470    1.000
    O8       O        0.79931    0.19060    0.78710    1.000
    O9       O        0.77585    0.34500    0.37770    1.000
    N3       N        0.54687    0.48300    0.90500    1.000
    C21      C        0.55080    0.42500    0.69630    1.000
    H17      H        0.52950    0.38390    0.59870    1.000
    C22      C        0.58500    0.42400    0.62700    1.000
    H18      H        0.58830    0.37230    0.48630    1.000
    C23      C        0.61140    0.54460    0.97440    1.000
    H19      H        0.63290    0.57120    0.07710    1.000
    C24      C        0.57710    0.55100    0.04230    1.000
    H20      H        0.57410    0.60220    0.18380    1.000
    C25      C        0.82636    0.41480    0.02690    1.000
    C26      C        0.86010    0.40520    0.94560    1.000
    H21      H        0.86130    0.35580    0.80200    1.000
    C27      C        0.89201    0.46770    0.07330    1.000
    H22      H        0.91510    0.46160    0.01730    1.000
    C28      C        0.89026    0.53910    0.28260    1.000
    H23      H        0.91230    0.57760    0.37190    1.000
    C29      C        0.85650    0.55460    0.36260    1.000
    H24      H        0.85560    0.60370    0.50650    1.000
    C30      C        0.79350    0.35900    0.87100    1.000
    O10      O        0.15380    0.94660    0.48470    1.000
    O11      O        0.29931    0.69060    0.78710    1.000
    O12      O        0.27585    0.84500    0.37770    1.000
    N4       N        0.04687    0.98300    0.90500    1.000
    C31      C        0.05080    0.92500    0.69630    1.000
    H25      H        0.02950    0.88390    0.59870    1.000
    C32      C        0.08500    0.92400    0.62700    1.000
    H26      H        0.08830    0.87230    0.48630    1.000
    C33      C        0.11140    0.04460    0.97440    1.000
    H27      H        0.13290    0.07120    0.07710    1.000
    C34      C        0.07710    0.05100    0.04230    1.000
    H28      H        0.07410    0.10220    0.18380    1.000
    C35      C        0.32636    0.91480    0.02690    1.000
    C36      C        0.36010    0.90520    0.94560    1.000
    H29      H        0.36130    0.85580    0.80200    1.000
    C37      C        0.39201    0.96770    0.07330    1.000
    H30      H        0.41510    0.96160    0.01730    1.000
    C38      C        0.39026    0.03910    0.28260    1.000
    H31      H        0.41230    0.07760    0.37190    1.000
    C39      C        0.35650    0.05460    0.36260    1.000
    H32      H        0.35560    0.10370    0.50650    1.000
    C40      C        0.29350    0.85900    0.87100    1.000
    O13      O        0.65380    0.55340    0.48470    1.000
    O14      O        0.79931    0.80940    0.78710    1.000
    O15      O        0.77585    0.65500    0.37770    1.000
    N5       N        0.54687    0.51700    0.90500    1.000
    C41      C        0.55080    0.57500    0.69630    1.000
    H33      H        0.52950    0.61610    0.59870    1.000
    C42      C        0.58500    0.57600    0.62700    1.000
    H34      H        0.58830    0.62770    0.48630    1.000
    C43      C        0.61140    0.45540    0.97440    1.000
    H35      H        0.63290    0.42880    0.07710    1.000
    C44      C        0.57710    0.44900    0.04230    1.000
    H36      H        0.57410    0.39780    0.18380    1.000
    C45      C        0.82636    0.58520    0.02690    1.000
    C46      C        0.86010    0.59480    0.94560    1.000
    H37      H        0.86130    0.64420    0.80200    1.000
    C47      C        0.89201    0.53230    0.07330    1.000
    H38      H        0.91510    0.53840    0.01730    1.000
    C48      C        0.89026    0.46090    0.28260    1.000
    H39      H        0.91230    0.42240    0.37190    1.000
    C49      C        0.85650    0.44540    0.36260    1.000
    H40      H        0.85560    0.39630    0.50650    1.000
    C50      C        0.79350    0.64100    0.87100    1.000
    O16      O        0.15380    0.05340    0.48470    1.000
    O17      O        0.29931    0.30940    0.78710    1.000
    O18      O        0.27585    0.15500    0.37770    1.000
    N6       N        0.04687    0.01700    0.90500    1.000
    C51      C        0.05080    0.07500    0.69630    1.000
    H41      H        0.02950    0.11610    0.59870    1.000
    C52      C        0.08500    0.07600    0.62700    1.000
    H42      H        0.08830    0.12770    0.48630    1.000
    C53      C        0.11140    0.95540    0.97440    1.000
    H43      H        0.13290    0.92880    0.07710    1.000
    C54      C        0.07710    0.94900    0.04230    1.000
    H44      H        0.07410    0.89780    0.18380    1.000
    C55      C        0.32636    0.08520    0.02690    1.000
    C56      C        0.36010    0.09480    0.94560    1.000
    H45      H        0.36130    0.14420    0.80200    1.000
    C57      C        0.39201    0.03230    0.07330    1.000
    H46      H        0.41510    0.03840    0.01730    1.000
    C58      C        0.39026    0.96090    0.28260    1.000
    H47      H        0.41230    0.92240    0.37190    1.000
    C59      C        0.35650    0.94540    0.36260    1.000
    H48      H        0.35560    0.89630    0.50650    1.000
    C60      C        0.29350    0.14100    0.87100    1.000
    O19      O        0.34620    0.55340    0.51530    1.000
    O20      O        0.20069    0.80940    0.21290    1.000
    O21      O        0.22415    0.65500    0.62230    1.000
    N7       N        0.45313    0.51700    0.09500    1.000
    C61      C        0.44920    0.57500    0.30370    1.000
    H49      H        0.47050    0.61610    0.40130    1.000
    C62      C        0.41500    0.57600    0.37300    1.000
    H50      H        0.41170    0.62770    0.51370    1.000
    C63      C        0.38860    0.45540    0.02560    1.000
    H51      H        0.36710    0.42880    0.92290    1.000
    C64      C        0.42290    0.44900    0.95770    1.000
    H52      H        0.42590    0.39780    0.81620    1.000
    C65      C        0.17364    0.58520    0.97310    1.000
    C66      C        0.13990    0.59480    0.05440    1.000
    H53      H        0.13870    0.64420    0.19800    1.000
    C67      C        0.10799    0.53230    0.92670    1.000
    H54      H        0.08490    0.53840    0.98270    1.000
    C68      C        0.10974    0.46090    0.71740    1.000
    H55      H        0.08770    0.42240    0.62810    1.000
    C69      C        0.14350    0.44540    0.63740    1.000
    H56      H        0.14440    0.39630    0.49350    1.000
    C70      C        0.20650    0.64100    0.12900    1.000
    O22      O        0.84620    0.05340    0.51530    1.000
    O23      O        0.70069    0.30940    0.21290    1.000
    O24      O        0.72415    0.15500    0.62230    1.000
    N8       N        0.95313    0.01700    0.09500    1.000
    C71      C        0.94920    0.07500    0.30370    1.000
    H57      H        0.97050    0.11610    0.40130    1.000
    C72      C        0.91500    0.07600    0.37300    1.000
    H58      H        0.91170    0.12770    0.51370    1.000
    C73      C        0.88860    0.95540    0.02560    1.000
    H59      H        0.86710    0.92880    0.92290    1.000
    C74      C        0.92290    0.94900    0.95770    1.000
    H60      H        0.92590    0.89780    0.81620    1.000
    C75      C        0.67364    0.08520    0.97310    1.000
    C76      C        0.63990    0.09480    0.05440    1.000
    H61      H        0.63870    0.14420    0.19800    1.000
    C77      C        0.60799    0.03230    0.92670    1.000
    H62      H        0.58490    0.03840    0.98270    1.000
    C78      C        0.60974    0.96090    0.71740    1.000
    H63      H        0.58770    0.92240    0.62810    1.000
    C79      C        0.64350    0.94540    0.63740    1.000
    H64      H        0.64440    0.89630    0.49350    1.000
    C80      C        0.70650    0.14100    0.12900    1.000
    Eu1      Eu       0.27998    0.50000    0.47900    1.000
    O25      O        0.31920    0.50000    0.19270    1.000
    O26      O        0.23280    0.50000    0.16270    1.000
    C81      C        0.38468    0.50000    0.23410    1.000
    C82      C        0.34780    0.50000    0.31800    1.000
    C83      C        0.17539    0.50000    0.76390    1.000
    C84      C        0.20990    0.50000    0.66790    1.000
    Eu2      Eu       0.77998    0.00000    0.47900    1.000
    O27      O        0.81920    0.00000    0.19270    1.000
    O28      O        0.73280    0.00000    0.16270    1.000
    C85      C        0.88468    0.00000    0.23410    1.000
    C86      C        0.84780    0.00000    0.31800    1.000
    C87      C        0.67539    0.00000    0.76390    1.000
    C88      C        0.70990    0.00000    0.66790    1.000
    Eu3      Eu       0.72002    0.50000    0.52100    1.000
    O29      O        0.68080    0.50000    0.80730    1.000
    O30      O        0.76720    0.50000    0.83730    1.000
    C89      C        0.61532    0.50000    0.76590    1.000
    C90      C        0.65220    0.50000    0.68200    1.000
    C91      C        0.82461    0.50000    0.23610    1.000
    C92      C        0.79010    0.50000    0.33210    1.000
    Eu4      Eu       0.22002    0.00000    0.52100    1.000
    O31      O        0.18080    0.00000    0.80730    1.000
    O32      O        0.26720    0.00000    0.83730    1.000
    C93      C        0.11532    0.00000    0.76590    1.000
    C94      C        0.15220    0.00000    0.68200    1.000
    C95      C        0.32461    0.00000    0.23610    1.000
    C96      C        0.29010    0.00000    0.33210    1.000
    Cu1      Cu       0.50000    0.50000    0.00000    1.000
    Cu2      Cu       0.00000    0.00000    0.00000    1.000
