# CIF file generated by openbabel 3.1.0, see https://openbabel.org
data_I
_chemical_name_common 'image0'
_cell_length_a 9.7887
_cell_length_b 10.0556
_cell_length_c 12.4566
_cell_angle_alpha 92.514
_cell_angle_beta 91.623
_cell_angle_gamma 91.495
_space_group_name_H-M_alt 'P 1'
_space_group_name_Hall 'P 1'
loop_
    _symmetry_equiv_pos_as_xyz
    x,y,z
loop_
    _atom_site_label
    _atom_site_type_symbol
    _atom_site_fract_x
    _atom_site_fract_y
    _atom_site_fract_z
    _atom_site_occupancy
    Pr1      Pr       0.05483    0.08947    0.85520    1.000
    Pr2      Pr       0.09728    0.33909    0.59430    1.000
    O1       O        0.34560    0.28170    0.62280    1.000
    O2       O        0.21280    0.17310    0.72890    1.000
    O3       O        0.92360    0.22540    0.69890    1.000
    O4       O        0.80790    0.13550    0.82710    1.000
    O5       O        0.92160    0.90990    0.93720    1.000
    O6       O        0.73880    0.83700    0.01660    1.000
    O7       O        0.78330    0.67180    0.58300    1.000
    O8       O        0.95090    0.53660    0.59790    1.000
    O9       O        0.21550    0.91580    0.87450    1.000
    O10      O        0.22550    0.74130    0.76360    1.000
    H1       H        0.19930    0.79530    0.72060    1.000
    O11      O        0.04340    0.32540    0.90440    1.000
    O12      O        0.13540    0.44520    0.77560    1.000
    O13      O        0.01030    0.94090    0.69210    1.000
    O14      O        0.07550    0.06360    0.53450    1.000
    O15      O        0.18750    0.86320    0.58190    1.000
    O16      O        0.96060    0.85090    0.51450    1.000
    O17      O        0.10660    0.73970    0.52270    1.000
    C1       C        0.33120    0.21110    0.70190    1.000
    C2       C        0.45470    0.16660    0.76590    1.000
    H2       H        0.43150    0.16010    0.84070    1.000
    H3       H        0.48040    0.07910    0.73890    1.000
    C3       C        0.81210    0.19800    0.74100    1.000
    C4       C        0.67910    0.23220    0.68390    1.000
    H4       H        0.69500    0.30940    0.64140    1.000
    H5       H        0.65020    0.15840    0.63500    1.000
    C5       C        0.79880    0.86230    0.93320    1.000
    C6       C        0.73000    0.82910    0.82460    1.000
    H6       H        0.77400    0.87900    0.76970    1.000
    H7       H        0.63460    0.85250    0.82590    1.000
    C7       C        0.86570    0.61130    0.63980    1.000
    C8       C        0.86890    0.63600    0.76020    1.000
    H8       H        0.94200    0.70010    0.78020    1.000
    H9       H        0.88930    0.55350    0.79410    1.000
    C9       C        0.24030    0.79760    0.85540    1.000
    C10      C        0.28820    0.72000    0.94990    1.000
    H10      H        0.37160    0.76240    0.98020    1.000
    H11      H        0.21970    0.72560    0.00460    1.000
    C11      C        0.12490    0.41320    0.87120    1.000
    C12      C        0.21620    0.48060    0.95920    1.000
    H12      H        0.15820    0.52210    0.01200    1.000
    H13      H        0.26630    0.41220    0.99470    1.000
    C13      C        0.55720    0.38670    0.79730    1.000
    C14      C        0.63780    0.59790    0.81290    1.000
    C15      C        0.42860    0.54440    0.87680    1.000
    N1       N        0.56990    0.26020    0.75800    1.000
    N2       N        0.74130    0.68540    0.80040    1.000
    N3       N        0.31390    0.58040    0.92600    1.000
    N4       N        0.44250    0.41430    0.85060    1.000
    N5       N        0.65860    0.47250    0.77840    1.000
    N6       N        0.52250    0.64020    0.85810    1.000
    S1       S        0.05660    0.93340    0.58150    1.000
    Pr3      Pr       0.94517    0.91053    0.14480    1.000
    Pr4      Pr       0.90272    0.66091    0.40570    1.000
    O18      O        0.65440    0.71830    0.37720    1.000
    O19      O        0.78720    0.82690    0.27110    1.000
    O20      O        0.07640    0.77460    0.30110    1.000
    O21      O        0.19210    0.86450    0.17290    1.000
    O22      O        0.07840    0.09010    0.06280    1.000
    O23      O        0.26120    0.16300    0.98340    1.000
    O24      O        0.21670    0.32820    0.41700    1.000
    O25      O        0.04910    0.46340    0.40210    1.000
    O26      O        0.78450    0.08420    0.12550    1.000
    O27      O        0.77450    0.25870    0.23640    1.000
    H14      H        0.80070    0.20470    0.27940    1.000
    O28      O        0.95660    0.67460    0.09560    1.000
    O29      O        0.86460    0.55480    0.22440    1.000
    O30      O        0.98970    0.05910    0.30790    1.000
    O31      O        0.92450    0.93640    0.46550    1.000
    O32      O        0.81250    0.13680    0.41810    1.000
    O33      O        0.03940    0.14910    0.48550    1.000
    O34      O        0.89340    0.26030    0.47730    1.000
    C16      C        0.66880    0.78890    0.29810    1.000
    C17      C        0.54530    0.83340    0.23410    1.000
    H15      H        0.56850    0.83990    0.15930    1.000
    H16      H        0.51960    0.92090    0.26110    1.000
    C18      C        0.18790    0.80200    0.25900    1.000
    C19      C        0.32090    0.76780    0.31610    1.000
    H17      H        0.30500    0.69060    0.35860    1.000
    H18      H        0.34980    0.84160    0.36500    1.000
    C20      C        0.20120    0.13770    0.06680    1.000
    C21      C        0.27000    0.17090    0.17540    1.000
    H19      H        0.22600    0.12100    0.23030    1.000
    H20      H        0.36540    0.14750    0.17410    1.000
    C22      C        0.13430    0.38870    0.36020    1.000
    C23      C        0.13110    0.36400    0.23980    1.000
    H21      H        0.05800    0.29990    0.21980    1.000
    H22      H        0.11070    0.44650    0.20590    1.000
    C24      C        0.75970    0.20240    0.14460    1.000
    C25      C        0.71180    0.28000    0.05010    1.000
    H23      H        0.62840    0.23760    0.01980    1.000
    H24      H        0.78030    0.27440    0.99540    1.000
    C26      C        0.87510    0.58680    0.12880    1.000
    C27      C        0.78380    0.51940    0.04080    1.000
    H25      H        0.84180    0.47790    0.98800    1.000
    H26      H        0.73370    0.58780    0.00530    1.000
    C28      C        0.44280    0.61330    0.20270    1.000
    C29      C        0.36220    0.40210    0.18710    1.000
    C30      C        0.57140    0.45560    0.12320    1.000
    N7       N        0.43010    0.73980    0.24200    1.000
    N8       N        0.25870    0.31460    0.19960    1.000
    N9       N        0.68610    0.41960    0.07400    1.000
    N10      N        0.55750    0.58570    0.14940    1.000
    N11      N        0.34140    0.52750    0.22160    1.000
    N12      N        0.47750    0.35980    0.14190    1.000
    S2       S        0.94340    0.06660    0.41850    1.000
