# CIF file generated by openbabel 3.1.0, see https://openbabel.org
data_I
_chemical_name_common 'image0'
_cell_length_a 28.0996
_cell_length_b 13.8122
_cell_length_c 22.4619
_cell_angle_alpha 90
_cell_angle_beta 99.3566
_cell_angle_gamma 90
_space_group_name_H-M_alt 'P 1'
_space_group_name_Hall 'P 1'
loop_
    _symmetry_equiv_pos_as_xyz
    x,y,z
loop_
    _atom_site_label
    _atom_site_type_symbol
    _atom_site_fract_x
    _atom_site_fract_y
    _atom_site_fract_z
    _atom_site_occupancy
    Tb1      Tb       0.03320    0.37557    0.04244    1.000
    Co1      Co       0.26261    0.61682    0.85187    1.000
    Cl1      Cl       0.22567    0.77213    0.83415    1.000
    O1       O        0.99897    0.53684    0.05741    1.000
    O2       O        0.08685    0.47749    0.90799    1.000
    N1       N        0.22626    0.58570    0.92525    1.000
    O3       O        0.07814    0.55480    0.63037    1.000
    O4       O        0.07807    0.64898    0.71114    1.000
    O5       O        0.09723    0.44720    0.00713    1.000
    O6       O        0.45170    0.83926    0.01642    1.000
    N2       N        0.21221    0.54380    0.78704    1.000
    C1       C        0.18251    0.54560    0.92038    1.000
    H1       H        0.16620    0.53120    0.88200    1.000
    C2       C        0.16020    0.52430    0.96897    1.000
    C3       C        0.29731    0.65680    0.98170    1.000
    O7       O        0.39844    0.36050    0.98555    1.000
    C4       C        0.24970    0.60890    0.98072    1.000
    C5       C        0.18453    0.54770    0.02625    1.000
    H2       H        0.17080    0.53410    0.06030    1.000
    O8       O        0.40650    0.23601    0.92422    1.000
    N3       N        0.31074    0.66960    0.92712    1.000
    C6       C        0.36836    0.73730    0.03093    1.000
    H3       H        0.38820    0.75830    0.06580    1.000
    C7       C        0.42515    0.81390    0.96796    1.000
    C8       C        0.32555    0.43710    0.89634    1.000
    H4       H        0.34150    0.47950    0.92500    1.000
    C9       C        0.32556    0.68830    0.03460    1.000
    H5       H        0.31610    0.67700    0.07180    1.000
    N4       N        0.28764    0.47020    0.85777    1.000
    C10      C        0.11056    0.47960    0.95990    1.000
    C11      C        0.38101    0.75440    0.97474    1.000
    C12      C        0.17212    0.58460    0.75629    1.000
    H6       H        0.16550    0.64890    0.76410    1.000
    C13      C        0.35164    0.71870    0.92459    1.000
    H7       H        0.36050    0.72920    0.88700    1.000
    C14      C        0.09515    0.58410    0.68230    1.000
    C15      C        0.22945    0.59150    0.03204    1.000
    H8       H        0.24580    0.60900    0.06990    1.000
    C16      C        0.38593    0.31160    0.93921    1.000
    C17      C        0.31679    0.27970    0.85440    1.000
    H9       H        0.32680    0.21580    0.85290    1.000
    C18      C        0.26314    0.40740    0.81774    1.000
    C19      C        0.27690    0.31090    0.81572    1.000
    H10      H        0.25930    0.26820    0.78860    1.000
    C20      C        0.34218    0.34290    0.89558    1.000
    O9       O        0.43153    0.83366    0.91577    1.000
    C21      C        0.14023    0.53450    0.71329    1.000
    C22      C        0.22074    0.44930    0.77754    1.000
    C23      C        0.15075    0.43920    0.70086    1.000
    H11      H        0.13130    0.40530    0.67040    1.000
    C24      C        0.19096    0.39490    0.73481    1.000
    H12      H        0.19770    0.33000    0.72880    1.000
    H13      H        0.01990    0.57500    0.07280    1.000
    H14      H        0.97950    0.54200    0.08200    1.000
    Tb2      Tb       0.53320    0.87557    0.04244    1.000
    Co2      Co       0.76261    0.11682    0.85187    1.000
    Cl2      Cl       0.72567    0.27213    0.83415    1.000
    O10      O        0.49897    0.03684    0.05741    1.000
    O11      O        0.58685    0.97749    0.90799    1.000
    N5       N        0.72626    0.08570    0.92525    1.000
    O12      O        0.57814    0.05480    0.63037    1.000
    O13      O        0.57807    0.14898    0.71114    1.000
    O14      O        0.59723    0.94720    0.00713    1.000
    O15      O        0.95170    0.33926    0.01642    1.000
    N6       N        0.71221    0.04380    0.78704    1.000
    C25      C        0.68251    0.04560    0.92038    1.000
    H15      H        0.66620    0.03120    0.88200    1.000
    C26      C        0.66020    0.02430    0.96897    1.000
    C27      C        0.79731    0.15680    0.98170    1.000
    O16      O        0.89844    0.86050    0.98555    1.000
    C28      C        0.74970    0.10890    0.98072    1.000
    C29      C        0.68453    0.04770    0.02625    1.000
    H16      H        0.67080    0.03410    0.06030    1.000
    O17      O        0.90650    0.73601    0.92422    1.000
    N7       N        0.81074    0.16960    0.92712    1.000
    C30      C        0.86836    0.23730    0.03093    1.000
    H17      H        0.88820    0.25830    0.06580    1.000
    C31      C        0.92515    0.31390    0.96796    1.000
    C32      C        0.82555    0.93710    0.89634    1.000
    H18      H        0.84150    0.97950    0.92500    1.000
    C33      C        0.82556    0.18830    0.03460    1.000
    H19      H        0.81610    0.17700    0.07180    1.000
    N8       N        0.78764    0.97020    0.85777    1.000
    C34      C        0.61056    0.97960    0.95990    1.000
    C35      C        0.88101    0.25440    0.97474    1.000
    C36      C        0.67212    0.08460    0.75629    1.000
    H20      H        0.66550    0.14890    0.76410    1.000
    C37      C        0.85164    0.21870    0.92459    1.000
    H21      H        0.86050    0.22920    0.88700    1.000
    C38      C        0.59515    0.08410    0.68230    1.000
    C39      C        0.72945    0.09150    0.03204    1.000
    H22      H        0.74580    0.10900    0.06990    1.000
    C40      C        0.88593    0.81160    0.93921    1.000
    C41      C        0.81679    0.77970    0.85440    1.000
    H23      H        0.82680    0.71580    0.85290    1.000
    C42      C        0.76314    0.90740    0.81774    1.000
    C43      C        0.77690    0.81090    0.81572    1.000
    H24      H        0.75930    0.76820    0.78860    1.000
    C44      C        0.84218    0.84290    0.89558    1.000
    O18      O        0.93153    0.33366    0.91577    1.000
    C45      C        0.64023    0.03450    0.71329    1.000
    C46      C        0.72074    0.94930    0.77754    1.000
    C47      C        0.65075    0.93920    0.70086    1.000
    H25      H        0.63130    0.90530    0.67040    1.000
    C48      C        0.69096    0.89490    0.73481    1.000
    H26      H        0.69770    0.83000    0.72880    1.000
    H27      H        0.51990    0.07500    0.07280    1.000
    H28      H        0.47950    0.04200    0.08200    1.000
    Tb3      Tb       0.96680    0.37557    0.45756    1.000
    Co3      Co       0.73739    0.61682    0.64813    1.000
    Cl3      Cl       0.77433    0.77213    0.66585    1.000
    O19      O        0.00103    0.53684    0.44259    1.000
    O20      O        0.91315    0.47749    0.59201    1.000
    N9       N        0.77374    0.58570    0.57475    1.000
    O21      O        0.92186    0.55480    0.86963    1.000
    O22      O        0.92193    0.64898    0.78886    1.000
    O23      O        0.90277    0.44720    0.49287    1.000
    O24      O        0.54830    0.83926    0.48358    1.000
    N10      N        0.78779    0.54380    0.71296    1.000
    C49      C        0.81749    0.54560    0.57962    1.000
    H29      H        0.83380    0.53120    0.61800    1.000
    C50      C        0.83980    0.52430    0.53103    1.000
    C51      C        0.70269    0.65680    0.51830    1.000
    O25      O        0.60156    0.36050    0.51445    1.000
    C52      C        0.75030    0.60890    0.51928    1.000
    C53      C        0.81547    0.54770    0.47375    1.000
    H30      H        0.82920    0.53410    0.43970    1.000
    O26      O        0.59350    0.23601    0.57578    1.000
    N11      N        0.68926    0.66960    0.57288    1.000
    C54      C        0.63164    0.73730    0.46907    1.000
    H31      H        0.61180    0.75830    0.43420    1.000
    C55      C        0.57485    0.81390    0.53204    1.000
    C56      C        0.67445    0.43710    0.60366    1.000
    H32      H        0.65850    0.47950    0.57500    1.000
    C57      C        0.67444    0.68830    0.46540    1.000
    H33      H        0.68390    0.67700    0.42820    1.000
    N12      N        0.71236    0.47020    0.64223    1.000
    C58      C        0.88944    0.47960    0.54010    1.000
    C59      C        0.61899    0.75440    0.52526    1.000
    C60      C        0.82788    0.58460    0.74371    1.000
    H34      H        0.83450    0.64890    0.73590    1.000
    C61      C        0.64836    0.71870    0.57541    1.000
    H35      H        0.63950    0.72920    0.61300    1.000
    C62      C        0.90485    0.58410    0.81770    1.000
    C63      C        0.77055    0.59150    0.46796    1.000
    H36      H        0.75420    0.60900    0.43010    1.000
    C64      C        0.61407    0.31160    0.56079    1.000
    C65      C        0.68321    0.27970    0.64560    1.000
    H37      H        0.67320    0.21580    0.64710    1.000
    C66      C        0.73686    0.40740    0.68226    1.000
    C67      C        0.72310    0.31090    0.68428    1.000
    H38      H        0.74070    0.26820    0.71140    1.000
    C68      C        0.65782    0.34290    0.60442    1.000
    O27      O        0.56847    0.83366    0.58423    1.000
    C69      C        0.85977    0.53450    0.78671    1.000
    C70      C        0.77926    0.44930    0.72246    1.000
    C71      C        0.84925    0.43920    0.79914    1.000
    H39      H        0.86870    0.40530    0.82960    1.000
    C72      C        0.80904    0.39490    0.76519    1.000
    H40      H        0.80230    0.33000    0.77120    1.000
    H41      H        0.98010    0.57500    0.42720    1.000
    H42      H        0.02050    0.54200    0.41800    1.000
    Tb4      Tb       0.46680    0.87557    0.45756    1.000
    Co4      Co       0.23739    0.11682    0.64813    1.000
    Cl4      Cl       0.27433    0.27213    0.66585    1.000
    O28      O        0.50103    0.03684    0.44259    1.000
    O29      O        0.41315    0.97749    0.59201    1.000
    N13      N        0.27374    0.08570    0.57475    1.000
    O30      O        0.42186    0.05480    0.86963    1.000
    O31      O        0.42193    0.14898    0.78886    1.000
    O32      O        0.40277    0.94720    0.49287    1.000
    O33      O        0.04830    0.33926    0.48358    1.000
    N14      N        0.28779    0.04380    0.71296    1.000
    C73      C        0.31749    0.04560    0.57962    1.000
    H43      H        0.33380    0.03120    0.61800    1.000
    C74      C        0.33980    0.02430    0.53103    1.000
    C75      C        0.20269    0.15680    0.51830    1.000
    O34      O        0.10156    0.86050    0.51445    1.000
    C76      C        0.25030    0.10890    0.51928    1.000
    C77      C        0.31547    0.04770    0.47375    1.000
    H44      H        0.32920    0.03410    0.43970    1.000
    O35      O        0.09350    0.73601    0.57578    1.000
    N15      N        0.18926    0.16960    0.57288    1.000
    C78      C        0.13164    0.23730    0.46907    1.000
    H45      H        0.11180    0.25830    0.43420    1.000
    C79      C        0.07485    0.31390    0.53204    1.000
    C80      C        0.17445    0.93710    0.60366    1.000
    H46      H        0.15850    0.97950    0.57500    1.000
    C81      C        0.17444    0.18830    0.46540    1.000
    H47      H        0.18390    0.17700    0.42820    1.000
    N16      N        0.21236    0.97020    0.64223    1.000
    C82      C        0.38944    0.97960    0.54010    1.000
    C83      C        0.11899    0.25440    0.52526    1.000
    C84      C        0.32788    0.08460    0.74371    1.000
    H48      H        0.33450    0.14890    0.73590    1.000
    C85      C        0.14836    0.21870    0.57541    1.000
    H49      H        0.13950    0.22920    0.61300    1.000
    C86      C        0.40485    0.08410    0.81770    1.000
    C87      C        0.27055    0.09150    0.46796    1.000
    H50      H        0.25420    0.10900    0.43010    1.000
    C88      C        0.11407    0.81160    0.56079    1.000
    C89      C        0.18321    0.77970    0.64560    1.000
    H51      H        0.17320    0.71580    0.64710    1.000
    C90      C        0.23686    0.90740    0.68226    1.000
    C91      C        0.22310    0.81090    0.68428    1.000
    H52      H        0.24070    0.76820    0.71140    1.000
    C92      C        0.15782    0.84290    0.60442    1.000
    O36      O        0.06847    0.33366    0.58423    1.000
    C93      C        0.35977    0.03450    0.78671    1.000
    C94      C        0.27926    0.94930    0.72246    1.000
    C95      C        0.34925    0.93920    0.79914    1.000
    H53      H        0.36870    0.90530    0.82960    1.000
    C96      C        0.30904    0.89490    0.76519    1.000
    H54      H        0.30230    0.83000    0.77120    1.000
    H55      H        0.48010    0.07500    0.42720    1.000
    H56      H        0.52050    0.04200    0.41800    1.000
    Tb5      Tb       0.96680    0.62443    0.95756    1.000
    Co5      Co       0.73739    0.38318    0.14813    1.000
    Cl5      Cl       0.77433    0.22787    0.16585    1.000
    O37      O        0.00103    0.46316    0.94259    1.000
    O38      O        0.91315    0.52251    0.09201    1.000
    N17      N        0.77374    0.41430    0.07475    1.000
    O39      O        0.92186    0.44520    0.36963    1.000
    O40      O        0.92193    0.35102    0.28886    1.000
    O41      O        0.90277    0.55280    0.99287    1.000
    O42      O        0.54830    0.16074    0.98358    1.000
    N18      N        0.78779    0.45620    0.21296    1.000
    C97      C        0.81749    0.45440    0.07962    1.000
    H57      H        0.83380    0.46880    0.11800    1.000
    C98      C        0.83980    0.47570    0.03103    1.000
    C99      C        0.70269    0.34320    0.01830    1.000
    O43      O        0.60156    0.63950    0.01445    1.000
    C100     C        0.75030    0.39110    0.01928    1.000
    C101     C        0.81547    0.45230    0.97375    1.000
    H58      H        0.82920    0.46590    0.93970    1.000
    O44      O        0.59350    0.76399    0.07578    1.000
    N19      N        0.68926    0.33040    0.07288    1.000
    C102     C        0.63164    0.26270    0.96907    1.000
    H59      H        0.61180    0.24170    0.93420    1.000
    C103     C        0.57485    0.18610    0.03204    1.000
    C104     C        0.67445    0.56290    0.10366    1.000
    H60      H        0.65850    0.52050    0.07500    1.000
    C105     C        0.67444    0.31170    0.96540    1.000
    H61      H        0.68390    0.32300    0.92820    1.000
    N20      N        0.71236    0.52980    0.14223    1.000
    C106     C        0.88944    0.52040    0.04010    1.000
    C107     C        0.61899    0.24560    0.02526    1.000
    C108     C        0.82788    0.41540    0.24371    1.000
    H62      H        0.83450    0.35110    0.23590    1.000
    C109     C        0.64836    0.28130    0.07541    1.000
    H63      H        0.63950    0.27080    0.11300    1.000
    C110     C        0.90485    0.41590    0.31770    1.000
    C111     C        0.77055    0.40850    0.96796    1.000
    H64      H        0.75420    0.39100    0.93010    1.000
    C112     C        0.61407    0.68840    0.06079    1.000
    C113     C        0.68321    0.72030    0.14560    1.000
    H65      H        0.67320    0.78420    0.14710    1.000
    C114     C        0.73686    0.59260    0.18226    1.000
    C115     C        0.72310    0.68910    0.18428    1.000
    H66      H        0.74070    0.73180    0.21140    1.000
    C116     C        0.65782    0.65710    0.10442    1.000
    O45      O        0.56847    0.16634    0.08423    1.000
    C117     C        0.85977    0.46550    0.28671    1.000
    C118     C        0.77926    0.55070    0.22246    1.000
    C119     C        0.84925    0.56080    0.29914    1.000
    H67      H        0.86870    0.59470    0.32960    1.000
    C120     C        0.80904    0.60510    0.26519    1.000
    H68      H        0.80230    0.67000    0.27120    1.000
    H69      H        0.98010    0.42500    0.92720    1.000
    H70      H        0.02050    0.45800    0.91800    1.000
    Tb6      Tb       0.46680    0.12443    0.95756    1.000
    Co6      Co       0.23739    0.88318    0.14813    1.000
    Cl6      Cl       0.27433    0.72787    0.16585    1.000
    O46      O        0.50103    0.96316    0.94259    1.000
    O47      O        0.41315    0.02251    0.09201    1.000
    N21      N        0.27374    0.91430    0.07475    1.000
    O48      O        0.42186    0.94520    0.36963    1.000
    O49      O        0.42193    0.85102    0.28886    1.000
    O50      O        0.40277    0.05280    0.99287    1.000
    O51      O        0.04830    0.66074    0.98358    1.000
    N22      N        0.28779    0.95620    0.21296    1.000
    C121     C        0.31749    0.95440    0.07962    1.000
    H71      H        0.33380    0.96880    0.11800    1.000
    C122     C        0.33980    0.97570    0.03103    1.000
    C123     C        0.20269    0.84320    0.01830    1.000
    O52      O        0.10156    0.13950    0.01445    1.000
    C124     C        0.25030    0.89110    0.01928    1.000
    C125     C        0.31547    0.95230    0.97375    1.000
    H72      H        0.32920    0.96590    0.93970    1.000
    O53      O        0.09350    0.26399    0.07578    1.000
    N23      N        0.18926    0.83040    0.07288    1.000
    C126     C        0.13164    0.76270    0.96907    1.000
    H73      H        0.11180    0.74170    0.93420    1.000
    C127     C        0.07485    0.68610    0.03204    1.000
    C128     C        0.17445    0.06290    0.10366    1.000
    H74      H        0.15850    0.02050    0.07500    1.000
    C129     C        0.17444    0.81170    0.96540    1.000
    H75      H        0.18390    0.82300    0.92820    1.000
    N24      N        0.21236    0.02980    0.14223    1.000
    C130     C        0.38944    0.02040    0.04010    1.000
    C131     C        0.11899    0.74560    0.02526    1.000
    C132     C        0.32788    0.91540    0.24371    1.000
    H76      H        0.33450    0.85110    0.23590    1.000
    C133     C        0.14836    0.78130    0.07541    1.000
    H77      H        0.13950    0.77080    0.11300    1.000
    C134     C        0.40485    0.91590    0.31770    1.000
    C135     C        0.27055    0.90850    0.96796    1.000
    H78      H        0.25420    0.89100    0.93010    1.000
    C136     C        0.11407    0.18840    0.06079    1.000
    C137     C        0.18321    0.22030    0.14560    1.000
    H79      H        0.17320    0.28420    0.14710    1.000
    C138     C        0.23686    0.09260    0.18226    1.000
    C139     C        0.22310    0.18910    0.18428    1.000
    H80      H        0.24070    0.23180    0.21140    1.000
    C140     C        0.15782    0.15710    0.10442    1.000
    O54      O        0.06847    0.66634    0.08423    1.000
    C141     C        0.35977    0.96550    0.28671    1.000
    C142     C        0.27926    0.05070    0.22246    1.000
    C143     C        0.34925    0.06080    0.29914    1.000
    H81      H        0.36870    0.09470    0.32960    1.000
    C144     C        0.30904    0.10510    0.26519    1.000
    H82      H        0.30230    0.17000    0.27120    1.000
    H83      H        0.48010    0.92500    0.92720    1.000
    H84      H        0.52050    0.95800    0.91800    1.000
    Tb7      Tb       0.03320    0.62443    0.54244    1.000
    Co7      Co       0.26261    0.38318    0.35187    1.000
    Cl7      Cl       0.22567    0.22787    0.33415    1.000
    O55      O        0.99897    0.46316    0.55741    1.000
    O56      O        0.08685    0.52251    0.40799    1.000
    N25      N        0.22626    0.41430    0.42525    1.000
    O57      O        0.07814    0.44520    0.13037    1.000
    O58      O        0.07807    0.35102    0.21114    1.000
    O59      O        0.09723    0.55280    0.50713    1.000
    O60      O        0.45170    0.16074    0.51642    1.000
    N26      N        0.21221    0.45620    0.28704    1.000
    C145     C        0.18251    0.45440    0.42038    1.000
    H85      H        0.16620    0.46880    0.38200    1.000
    C146     C        0.16020    0.47570    0.46897    1.000
    C147     C        0.29731    0.34320    0.48170    1.000
    O61      O        0.39844    0.63950    0.48555    1.000
    C148     C        0.24970    0.39110    0.48072    1.000
    C149     C        0.18453    0.45230    0.52625    1.000
    H86      H        0.17080    0.46590    0.56030    1.000
    O62      O        0.40650    0.76399    0.42422    1.000
    N27      N        0.31074    0.33040    0.42712    1.000
    C150     C        0.36836    0.26270    0.53093    1.000
    H87      H        0.38820    0.24170    0.56580    1.000
    C151     C        0.42515    0.18610    0.46796    1.000
    C152     C        0.32555    0.56290    0.39634    1.000
    H88      H        0.34150    0.52050    0.42500    1.000
    C153     C        0.32556    0.31170    0.53460    1.000
    H89      H        0.31610    0.32300    0.57180    1.000
    N28      N        0.28764    0.52980    0.35777    1.000
    C154     C        0.11056    0.52040    0.45990    1.000
    C155     C        0.38101    0.24560    0.47474    1.000
    C156     C        0.17212    0.41540    0.25629    1.000
    H90      H        0.16550    0.35110    0.26410    1.000
    C157     C        0.35164    0.28130    0.42459    1.000
    H91      H        0.36050    0.27080    0.38700    1.000
    C158     C        0.09515    0.41590    0.18230    1.000
    C159     C        0.22945    0.40850    0.53204    1.000
    H92      H        0.24580    0.39100    0.56990    1.000
    C160     C        0.38593    0.68840    0.43921    1.000
    C161     C        0.31679    0.72030    0.35440    1.000
    H93      H        0.32680    0.78420    0.35290    1.000
    C162     C        0.26314    0.59260    0.31774    1.000
    C163     C        0.27690    0.68910    0.31572    1.000
    H94      H        0.25930    0.73180    0.28860    1.000
    C164     C        0.34218    0.65710    0.39558    1.000
    O63      O        0.43153    0.16634    0.41577    1.000
    C165     C        0.14023    0.46550    0.21329    1.000
    C166     C        0.22074    0.55070    0.27754    1.000
    C167     C        0.15075    0.56080    0.20086    1.000
    H95      H        0.13130    0.59470    0.17040    1.000
    C168     C        0.19096    0.60510    0.23481    1.000
    H96      H        0.19770    0.67000    0.22880    1.000
    H97      H        0.01990    0.42500    0.57280    1.000
    H98      H        0.97950    0.45800    0.58200    1.000
    Tb8      Tb       0.53320    0.12443    0.54244    1.000
    Co8      Co       0.76261    0.88318    0.35187    1.000
    Cl8      Cl       0.72567    0.72787    0.33415    1.000
    O64      O        0.49897    0.96316    0.55741    1.000
    O65      O        0.58685    0.02251    0.40799    1.000
    N29      N        0.72626    0.91430    0.42525    1.000
    O66      O        0.57814    0.94520    0.13037    1.000
    O67      O        0.57807    0.85102    0.21114    1.000
    O68      O        0.59723    0.05280    0.50713    1.000
    O69      O        0.95170    0.66074    0.51642    1.000
    N30      N        0.71221    0.95620    0.28704    1.000
    C169     C        0.68251    0.95440    0.42038    1.000
    H99      H        0.66620    0.96880    0.38200    1.000
    C170     C        0.66020    0.97570    0.46897    1.000
    C171     C        0.79731    0.84320    0.48170    1.000
    O70      O        0.89844    0.13950    0.48555    1.000
    C172     C        0.74970    0.89110    0.48072    1.000
    C173     C        0.68453    0.95230    0.52625    1.000
    H100     H        0.67080    0.96590    0.56030    1.000
    O71      O        0.90650    0.26399    0.42422    1.000
    N31      N        0.81074    0.83040    0.42712    1.000
    C174     C        0.86836    0.76270    0.53093    1.000
    H101     H        0.88820    0.74170    0.56580    1.000
    C175     C        0.92515    0.68610    0.46796    1.000
    C176     C        0.82555    0.06290    0.39634    1.000
    H102     H        0.84150    0.02050    0.42500    1.000
    C177     C        0.82556    0.81170    0.53460    1.000
    H103     H        0.81610    0.82300    0.57180    1.000
    N32      N        0.78764    0.02980    0.35777    1.000
    C178     C        0.61056    0.02040    0.45990    1.000
    C179     C        0.88101    0.74560    0.47474    1.000
    C180     C        0.67212    0.91540    0.25629    1.000
    H104     H        0.66550    0.85110    0.26410    1.000
    C181     C        0.85164    0.78130    0.42459    1.000
    H105     H        0.86050    0.77080    0.38700    1.000
    C182     C        0.59515    0.91590    0.18230    1.000
    C183     C        0.72945    0.90850    0.53204    1.000
    H106     H        0.74580    0.89100    0.56990    1.000
    C184     C        0.88593    0.18840    0.43921    1.000
    C185     C        0.81679    0.22030    0.35440    1.000
    H107     H        0.82680    0.28420    0.35290    1.000
    C186     C        0.76314    0.09260    0.31774    1.000
    C187     C        0.77690    0.18910    0.31572    1.000
    H108     H        0.75930    0.23180    0.28860    1.000
    C188     C        0.84218    0.15710    0.39558    1.000
    O72      O        0.93153    0.66634    0.41577    1.000
    C189     C        0.64023    0.96550    0.21329    1.000
    C190     C        0.72074    0.05070    0.27754    1.000
    C191     C        0.65075    0.06080    0.20086    1.000
    H109     H        0.63130    0.09470    0.17040    1.000
    C192     C        0.69096    0.10510    0.23481    1.000
    H110     H        0.69770    0.17000    0.22880    1.000
    H111     H        0.51990    0.92500    0.57280    1.000
    H112     H        0.47950    0.95800    0.58200    1.000
