# CIF file generated by openbabel 3.1.0, see https://openbabel.org
data_I
_chemical_name_common 'image0'
_cell_length_a 20.9271
_cell_length_b 20.9271
_cell_length_c 20.9271
_cell_angle_alpha 90
_cell_angle_beta 90
_cell_angle_gamma 90
_space_group_name_H-M_alt 'P 1'
_space_group_name_Hall 'P 1'
loop_
    _symmetry_equiv_pos_as_xyz
    x,y,z
loop_
    _atom_site_label
    _atom_site_type_symbol
    _atom_site_fract_x
    _atom_site_fract_y
    _atom_site_fract_z
    _atom_site_occupancy
    C1       C        0.35960    0.80690    0.94860    1.000
    C2       C        0.36780    0.76400    0.90990    1.000
    O1       O        0.40700    0.78930    0.86340    1.000
    O2       O        0.36090    0.70470    0.90650    1.000
    C3       C        0.25210    0.77880    0.02320    1.000
    Gd1      Gd       0.47670    0.24910    0.78690    1.000
    C4       C        0.37400    0.22700    0.96300    1.000
    C5       C        0.40950    0.27170    0.92440    1.000
    O3       O        0.45530    0.24500    0.89880    1.000
    O4       O        0.41880    0.31220    0.96710    1.000
    C6       C        0.64040    0.19310    0.94860    1.000
    C7       C        0.63220    0.23600    0.90990    1.000
    O5       O        0.59300    0.21070    0.86340    1.000
    O6       O        0.63910    0.29530    0.90650    1.000
    C8       C        0.74790    0.22120    0.02320    1.000
    Gd2      Gd       0.52330    0.75090    0.78690    1.000
    C9       C        0.62600    0.77300    0.96300    1.000
    C10      C        0.59050    0.72830    0.92440    1.000
    O7       O        0.54470    0.75500    0.89880    1.000
    O8       O        0.58120    0.68780    0.96710    1.000
    C11      C        0.64040    0.80690    0.05140    1.000
    C12      C        0.63220    0.76400    0.09010    1.000
    O9       O        0.59300    0.78930    0.13660    1.000
    O10      O        0.63910    0.70470    0.09350    1.000
    C13      C        0.74790    0.77880    0.97680    1.000
    Gd3      Gd       0.52330    0.24910    0.21310    1.000
    C14      C        0.62600    0.22700    0.03700    1.000
    C15      C        0.59050    0.27170    0.07560    1.000
    O11      O        0.54470    0.24500    0.10120    1.000
    O12      O        0.58120    0.31220    0.03290    1.000
    C16      C        0.35960    0.19310    0.05140    1.000
    C17      C        0.36780    0.23600    0.09010    1.000
    O13      O        0.40700    0.21070    0.13660    1.000
    O14      O        0.36090    0.29530    0.09350    1.000
    C18      C        0.25210    0.22120    0.97680    1.000
    Gd4      Gd       0.47670    0.75090    0.21310    1.000
    C19      C        0.37400    0.77300    0.03700    1.000
    C20      C        0.40950    0.72830    0.07560    1.000
    O15      O        0.45530    0.75500    0.10120    1.000
    O16      O        0.41880    0.68780    0.03290    1.000
    C21      C        0.94860    0.35960    0.80690    1.000
    C22      C        0.90990    0.36780    0.76400    1.000
    O17      O        0.86340    0.40700    0.78930    1.000
    O18      O        0.90650    0.36090    0.70470    1.000
    C23      C        0.02320    0.25210    0.77880    1.000
    Gd5      Gd       0.78690    0.47670    0.24910    1.000
    C24      C        0.96300    0.37400    0.22700    1.000
    C25      C        0.92440    0.40950    0.27170    1.000
    O19      O        0.89880    0.45530    0.24500    1.000
    O20      O        0.96710    0.41880    0.31220    1.000
    C26      C        0.94860    0.64040    0.19310    1.000
    C27      C        0.90990    0.63220    0.23600    1.000
    O21      O        0.86340    0.59300    0.21070    1.000
    O22      O        0.90650    0.63910    0.29530    1.000
    C28      C        0.02320    0.74790    0.22120    1.000
    Gd6      Gd       0.78690    0.52330    0.75090    1.000
    C29      C        0.96300    0.62600    0.77300    1.000
    C30      C        0.92440    0.59050    0.72830    1.000
    O23      O        0.89880    0.54470    0.75500    1.000
    O24      O        0.96710    0.58120    0.68780    1.000
    C31      C        0.05140    0.64040    0.80690    1.000
    C32      C        0.09010    0.63220    0.76400    1.000
    O25      O        0.13660    0.59300    0.78930    1.000
    O26      O        0.09350    0.63910    0.70470    1.000
    C33      C        0.97680    0.74790    0.77880    1.000
    Gd7      Gd       0.21310    0.52330    0.24910    1.000
    C34      C        0.03700    0.62600    0.22700    1.000
    C35      C        0.07560    0.59050    0.27170    1.000
    O27      O        0.10120    0.54470    0.24500    1.000
    O28      O        0.03290    0.58120    0.31220    1.000
    C36      C        0.05140    0.35960    0.19310    1.000
    C37      C        0.09010    0.36780    0.23600    1.000
    O29      O        0.13660    0.40700    0.21070    1.000
    O30      O        0.09350    0.36090    0.29530    1.000
    C38      C        0.97680    0.25210    0.22120    1.000
    Gd8      Gd       0.21310    0.47670    0.75090    1.000
    C39      C        0.03700    0.37400    0.77300    1.000
    C40      C        0.07560    0.40950    0.72830    1.000
    O31      O        0.10120    0.45530    0.75500    1.000
    O32      O        0.03290    0.41880    0.68780    1.000
    C41      C        0.80690    0.94860    0.35960    1.000
    C42      C        0.76400    0.90990    0.36780    1.000
    O33      O        0.78930    0.86340    0.40700    1.000
    O34      O        0.70470    0.90650    0.36090    1.000
    C43      C        0.77880    0.02320    0.25210    1.000
    Gd9      Gd       0.24910    0.78690    0.47670    1.000
    C44      C        0.22700    0.96300    0.37400    1.000
    C45      C        0.27170    0.92440    0.40950    1.000
    O35      O        0.24500    0.89880    0.45530    1.000
    O36      O        0.31220    0.96710    0.41880    1.000
    C46      C        0.19310    0.94860    0.64040    1.000
    C47      C        0.23600    0.90990    0.63220    1.000
    O37      O        0.21070    0.86340    0.59300    1.000
    O38      O        0.29530    0.90650    0.63910    1.000
    C48      C        0.22120    0.02320    0.74790    1.000
    Gd10     Gd       0.75090    0.78690    0.52330    1.000
    C49      C        0.77300    0.96300    0.62600    1.000
    C50      C        0.72830    0.92440    0.59050    1.000
    O39      O        0.75500    0.89880    0.54470    1.000
    O40      O        0.68780    0.96710    0.58120    1.000
    C51      C        0.80690    0.05140    0.64040    1.000
    C52      C        0.76400    0.09010    0.63220    1.000
    O41      O        0.78930    0.13660    0.59300    1.000
    O42      O        0.70470    0.09350    0.63910    1.000
    C53      C        0.77880    0.97680    0.74790    1.000
    Gd11     Gd       0.24910    0.21310    0.52330    1.000
    C54      C        0.22700    0.03700    0.62600    1.000
    C55      C        0.27170    0.07560    0.59050    1.000
    O43      O        0.24500    0.10120    0.54470    1.000
    O44      O        0.31220    0.03290    0.58120    1.000
    C56      C        0.19310    0.05140    0.35960    1.000
    C57      C        0.23600    0.09010    0.36780    1.000
    O45      O        0.21070    0.13660    0.40700    1.000
    O46      O        0.29530    0.09350    0.36090    1.000
    C58      C        0.22120    0.97680    0.25210    1.000
    Gd12     Gd       0.75090    0.21310    0.47670    1.000
    C59      C        0.77300    0.03700    0.37400    1.000
    C60      C        0.72830    0.07560    0.40950    1.000
    O47      O        0.75500    0.10120    0.45530    1.000
    O48      O        0.68780    0.03290    0.41880    1.000
    C61      C        0.80690    0.35960    0.05140    1.000
    C62      C        0.76400    0.36780    0.09010    1.000
    O49      O        0.78930    0.40700    0.13660    1.000
    O50      O        0.70470    0.36090    0.09350    1.000
    C63      C        0.77880    0.25210    0.97680    1.000
    Gd13     Gd       0.24910    0.47670    0.21310    1.000
    C64      C        0.22700    0.37400    0.03700    1.000
    C65      C        0.27170    0.40950    0.07560    1.000
    O51      O        0.24500    0.45530    0.10120    1.000
    O52      O        0.31220    0.41880    0.03290    1.000
    C66      C        0.19310    0.64040    0.05140    1.000
    C67      C        0.23600    0.63220    0.09010    1.000
    O53      O        0.21070    0.59300    0.13660    1.000
    O54      O        0.29530    0.63910    0.09350    1.000
    C68      C        0.22120    0.74790    0.97680    1.000
    Gd14     Gd       0.75090    0.52330    0.21310    1.000
    C69      C        0.77300    0.62600    0.03700    1.000
    C70      C        0.72830    0.59050    0.07560    1.000
    O55      O        0.75500    0.54470    0.10120    1.000
    O56      O        0.68780    0.58120    0.03290    1.000
    C71      C        0.80690    0.64040    0.94860    1.000
    C72      C        0.76400    0.63220    0.90990    1.000
    O57      O        0.78930    0.59300    0.86340    1.000
    O58      O        0.70470    0.63910    0.90650    1.000
    C73      C        0.77880    0.74790    0.02320    1.000
    Gd15     Gd       0.24910    0.52330    0.78690    1.000
    C74      C        0.22700    0.62600    0.96300    1.000
    C75      C        0.27170    0.59050    0.92440    1.000
    O59      O        0.24500    0.54470    0.89880    1.000
    O60      O        0.31220    0.58120    0.96710    1.000
    C76      C        0.19310    0.35960    0.94860    1.000
    C77      C        0.23600    0.36780    0.90990    1.000
    O61      O        0.21070    0.40700    0.86340    1.000
    O62      O        0.29530    0.36090    0.90650    1.000
    C78      C        0.22120    0.25210    0.02320    1.000
    Gd16     Gd       0.75090    0.47670    0.78690    1.000
    C79      C        0.77300    0.37400    0.96300    1.000
    C80      C        0.72830    0.40950    0.92440    1.000
    O63      O        0.75500    0.45530    0.89880    1.000
    O64      O        0.68780    0.41880    0.96710    1.000
    C81      C        0.35960    0.94860    0.19310    1.000
    C82      C        0.36780    0.90990    0.23600    1.000
    O65      O        0.40700    0.86340    0.21070    1.000
    O66      O        0.36090    0.90650    0.29530    1.000
    C83      C        0.25210    0.02320    0.22120    1.000
    Gd17     Gd       0.47670    0.78690    0.75090    1.000
    C84      C        0.37400    0.96300    0.77300    1.000
    C85      C        0.40950    0.92440    0.72830    1.000
    O67      O        0.45530    0.89880    0.75500    1.000
    O68      O        0.41880    0.96710    0.68780    1.000
    C86      C        0.64040    0.94860    0.80690    1.000
    C87      C        0.63220    0.90990    0.76400    1.000
    O69      O        0.59300    0.86340    0.78930    1.000
    O70      O        0.63910    0.90650    0.70470    1.000
    C88      C        0.74790    0.02320    0.77880    1.000
    Gd18     Gd       0.52330    0.78690    0.24910    1.000
    C89      C        0.62600    0.96300    0.22700    1.000
    C90      C        0.59050    0.92440    0.27170    1.000
    O71      O        0.54470    0.89880    0.24500    1.000
    O72      O        0.58120    0.96710    0.31220    1.000
    C91      C        0.64040    0.05140    0.19310    1.000
    C92      C        0.63220    0.09010    0.23600    1.000
    O73      O        0.59300    0.13660    0.21070    1.000
    O74      O        0.63910    0.09350    0.29530    1.000
    C93      C        0.74790    0.97680    0.22120    1.000
    Gd19     Gd       0.52330    0.21310    0.75090    1.000
    C94      C        0.62600    0.03700    0.77300    1.000
    C95      C        0.59050    0.07560    0.72830    1.000
    O75      O        0.54470    0.10120    0.75500    1.000
    O76      O        0.58120    0.03290    0.68780    1.000
    C96      C        0.35960    0.05140    0.80690    1.000
    C97      C        0.36780    0.09010    0.76400    1.000
    O77      O        0.40700    0.13660    0.78930    1.000
    O78      O        0.36090    0.09350    0.70470    1.000
    C98      C        0.25210    0.97680    0.77880    1.000
    Gd20     Gd       0.47670    0.21310    0.24910    1.000
    C99      C        0.37400    0.03700    0.22700    1.000
    C100     C        0.40950    0.07560    0.27170    1.000
    O79      O        0.45530    0.10120    0.24500    1.000
    O80      O        0.41880    0.03290    0.31220    1.000
    C101     C        0.94860    0.80690    0.64040    1.000
    C102     C        0.90990    0.76400    0.63220    1.000
    O81      O        0.86340    0.78930    0.59300    1.000
    O82      O        0.90650    0.70470    0.63910    1.000
    C103     C        0.02320    0.77880    0.74790    1.000
    Gd21     Gd       0.78690    0.24910    0.52330    1.000
    C104     C        0.96300    0.22700    0.62600    1.000
    C105     C        0.92440    0.27170    0.59050    1.000
    O83      O        0.89880    0.24500    0.54470    1.000
    O84      O        0.96710    0.31220    0.58120    1.000
    C106     C        0.94860    0.19310    0.35960    1.000
    C107     C        0.90990    0.23600    0.36780    1.000
    O85      O        0.86340    0.21070    0.40700    1.000
    O86      O        0.90650    0.29530    0.36090    1.000
    C108     C        0.02320    0.22120    0.25210    1.000
    Gd22     Gd       0.78690    0.75090    0.47670    1.000
    C109     C        0.96300    0.77300    0.37400    1.000
    C110     C        0.92440    0.72830    0.40950    1.000
    O87      O        0.89880    0.75500    0.45530    1.000
    O88      O        0.96710    0.68780    0.41880    1.000
    C111     C        0.05140    0.80690    0.35960    1.000
    C112     C        0.09010    0.76400    0.36780    1.000
    O89      O        0.13660    0.78930    0.40700    1.000
    O90      O        0.09350    0.70470    0.36090    1.000
    C113     C        0.97680    0.77880    0.25210    1.000
    Gd23     Gd       0.21310    0.24910    0.47670    1.000
    C114     C        0.03700    0.22700    0.37400    1.000
    C115     C        0.07560    0.27170    0.40950    1.000
    O91      O        0.10120    0.24500    0.45530    1.000
    O92      O        0.03290    0.31220    0.41880    1.000
    C116     C        0.05140    0.19310    0.64040    1.000
    C117     C        0.09010    0.23600    0.63220    1.000
    O93      O        0.13660    0.21070    0.59300    1.000
    O94      O        0.09350    0.29530    0.63910    1.000
    C118     C        0.97680    0.22120    0.74790    1.000
    Gd24     Gd       0.21310    0.75090    0.52330    1.000
    C119     C        0.03700    0.77300    0.62600    1.000
    C120     C        0.07560    0.72830    0.59050    1.000
    O95      O        0.10120    0.75500    0.54470    1.000
    O96      O        0.03290    0.68780    0.58120    1.000
    C121     C        0.64040    0.19310    0.05140    1.000
    C122     C        0.63220    0.23600    0.09010    1.000
    O97      O        0.59300    0.21070    0.13660    1.000
    O98      O        0.63910    0.29530    0.09350    1.000
    C123     C        0.74790    0.22120    0.97680    1.000
    Gd25     Gd       0.52330    0.75090    0.21310    1.000
    C124     C        0.62600    0.77300    0.03700    1.000
    C125     C        0.59050    0.72830    0.07560    1.000
    O99      O        0.54470    0.75500    0.10120    1.000
    O100     O        0.58120    0.68780    0.03290    1.000
    C126     C        0.35960    0.80690    0.05140    1.000
    C127     C        0.36780    0.76400    0.09010    1.000
    O101     O        0.40700    0.78930    0.13660    1.000
    O102     O        0.36090    0.70470    0.09350    1.000
    C128     C        0.25210    0.77880    0.97680    1.000
    Gd26     Gd       0.47670    0.24910    0.21310    1.000
    C129     C        0.37400    0.22700    0.03700    1.000
    C130     C        0.40950    0.27170    0.07560    1.000
    O103     O        0.45530    0.24500    0.10120    1.000
    O104     O        0.41880    0.31220    0.03290    1.000
    C131     C        0.35960    0.19310    0.94860    1.000
    C132     C        0.36780    0.23600    0.90990    1.000
    O105     O        0.40700    0.21070    0.86340    1.000
    O106     O        0.36090    0.29530    0.90650    1.000
    C133     C        0.25210    0.22120    0.02320    1.000
    Gd27     Gd       0.47670    0.75090    0.78690    1.000
    C134     C        0.37400    0.77300    0.96300    1.000
    C135     C        0.40950    0.72830    0.92440    1.000
    O107     O        0.45530    0.75500    0.89880    1.000
    O108     O        0.41880    0.68780    0.96710    1.000
    C136     C        0.64040    0.80690    0.94860    1.000
    C137     C        0.63220    0.76400    0.90990    1.000
    O109     O        0.59300    0.78930    0.86340    1.000
    O110     O        0.63910    0.70470    0.90650    1.000
    C138     C        0.74790    0.77880    0.02320    1.000
    Gd28     Gd       0.52330    0.24910    0.78690    1.000
    C139     C        0.62600    0.22700    0.96300    1.000
    C140     C        0.59050    0.27170    0.92440    1.000
    O111     O        0.54470    0.24500    0.89880    1.000
    O112     O        0.58120    0.31220    0.96710    1.000
    C141     C        0.05140    0.64040    0.19310    1.000
    C142     C        0.09010    0.63220    0.23600    1.000
    O113     O        0.13660    0.59300    0.21070    1.000
    O114     O        0.09350    0.63910    0.29530    1.000
    C143     C        0.97680    0.74790    0.22120    1.000
    Gd29     Gd       0.21310    0.52330    0.75090    1.000
    C144     C        0.03700    0.62600    0.77300    1.000
    C145     C        0.07560    0.59050    0.72830    1.000
    O115     O        0.10120    0.54470    0.75500    1.000
    O116     O        0.03290    0.58120    0.68780    1.000
    C146     C        0.05140    0.35960    0.80690    1.000
    C147     C        0.09010    0.36780    0.76400    1.000
    O117     O        0.13660    0.40700    0.78930    1.000
    O118     O        0.09350    0.36090    0.70470    1.000
    C148     C        0.97680    0.25210    0.77880    1.000
    Gd30     Gd       0.21310    0.47670    0.24910    1.000
    C149     C        0.03700    0.37400    0.22700    1.000
    C150     C        0.07560    0.40950    0.27170    1.000
    O119     O        0.10120    0.45530    0.24500    1.000
    O120     O        0.03290    0.41880    0.31220    1.000
    C151     C        0.94860    0.35960    0.19310    1.000
    C152     C        0.90990    0.36780    0.23600    1.000
    O121     O        0.86340    0.40700    0.21070    1.000
    O122     O        0.90650    0.36090    0.29530    1.000
    C153     C        0.02320    0.25210    0.22120    1.000
    Gd31     Gd       0.78690    0.47670    0.75090    1.000
    C154     C        0.96300    0.37400    0.77300    1.000
    C155     C        0.92440    0.40950    0.72830    1.000
    O123     O        0.89880    0.45530    0.75500    1.000
    O124     O        0.96710    0.41880    0.68780    1.000
    C156     C        0.94860    0.64040    0.80690    1.000
    C157     C        0.90990    0.63220    0.76400    1.000
    O125     O        0.86340    0.59300    0.78930    1.000
    O126     O        0.90650    0.63910    0.70470    1.000
    C158     C        0.02320    0.74790    0.77880    1.000
    Gd32     Gd       0.78690    0.52330    0.24910    1.000
    C159     C        0.96300    0.62600    0.22700    1.000
    C160     C        0.92440    0.59050    0.27170    1.000
    O127     O        0.89880    0.54470    0.24500    1.000
    O128     O        0.96710    0.58120    0.31220    1.000
    C161     C        0.19310    0.05140    0.64040    1.000
    C162     C        0.23600    0.09010    0.63220    1.000
    O129     O        0.21070    0.13660    0.59300    1.000
    O130     O        0.29530    0.09350    0.63910    1.000
    C163     C        0.22120    0.97680    0.74790    1.000
    Gd33     Gd       0.75090    0.21310    0.52330    1.000
    C164     C        0.77300    0.03700    0.62600    1.000
    C165     C        0.72830    0.07560    0.59050    1.000
    O131     O        0.75500    0.10120    0.54470    1.000
    O132     O        0.68780    0.03290    0.58120    1.000
    C166     C        0.80690    0.05140    0.35960    1.000
    C167     C        0.76400    0.09010    0.36780    1.000
    O133     O        0.78930    0.13660    0.40700    1.000
    O134     O        0.70470    0.09350    0.36090    1.000
    C168     C        0.77880    0.97680    0.25210    1.000
    Gd34     Gd       0.24910    0.21310    0.47670    1.000
    C169     C        0.22700    0.03700    0.37400    1.000
    C170     C        0.27170    0.07560    0.40950    1.000
    O135     O        0.24500    0.10120    0.45530    1.000
    O136     O        0.31220    0.03290    0.41880    1.000
    C171     C        0.19310    0.94860    0.35960    1.000
    C172     C        0.23600    0.90990    0.36780    1.000
    O137     O        0.21070    0.86340    0.40700    1.000
    O138     O        0.29530    0.90650    0.36090    1.000
    C173     C        0.22120    0.02320    0.25210    1.000
    Gd35     Gd       0.75090    0.78690    0.47670    1.000
    C174     C        0.77300    0.96300    0.37400    1.000
    C175     C        0.72830    0.92440    0.40950    1.000
    O139     O        0.75500    0.89880    0.45530    1.000
    O140     O        0.68780    0.96710    0.41880    1.000
    C176     C        0.80690    0.94860    0.64040    1.000
    C177     C        0.76400    0.90990    0.63220    1.000
    O141     O        0.78930    0.86340    0.59300    1.000
    O142     O        0.70470    0.90650    0.63910    1.000
    C178     C        0.77880    0.02320    0.74790    1.000
    Gd36     Gd       0.24910    0.78690    0.52330    1.000
    C179     C        0.22700    0.96300    0.62600    1.000
    C180     C        0.27170    0.92440    0.59050    1.000
    O143     O        0.24500    0.89880    0.54470    1.000
    O144     O        0.31220    0.96710    0.58120    1.000
    C181     C        0.19310    0.64040    0.94860    1.000
    C182     C        0.23600    0.63220    0.90990    1.000
    O145     O        0.21070    0.59300    0.86340    1.000
    O146     O        0.29530    0.63910    0.90650    1.000
    C183     C        0.22120    0.74790    0.02320    1.000
    Gd37     Gd       0.75090    0.52330    0.78690    1.000
    C184     C        0.77300    0.62600    0.96300    1.000
    C185     C        0.72830    0.59050    0.92440    1.000
    O147     O        0.75500    0.54470    0.89880    1.000
    O148     O        0.68780    0.58120    0.96710    1.000
    C186     C        0.80690    0.35960    0.94860    1.000
    C187     C        0.76400    0.36780    0.90990    1.000
    O149     O        0.78930    0.40700    0.86340    1.000
    O150     O        0.70470    0.36090    0.90650    1.000
    C188     C        0.77880    0.25210    0.02320    1.000
    Gd38     Gd       0.24910    0.47670    0.78690    1.000
    C189     C        0.22700    0.37400    0.96300    1.000
    C190     C        0.27170    0.40950    0.92440    1.000
    O151     O        0.24500    0.45530    0.89880    1.000
    O152     O        0.31220    0.41880    0.96710    1.000
    C191     C        0.19310    0.35960    0.05140    1.000
    C192     C        0.23600    0.36780    0.09010    1.000
    O153     O        0.21070    0.40700    0.13660    1.000
    O154     O        0.29530    0.36090    0.09350    1.000
    C193     C        0.22120    0.25210    0.97680    1.000
    Gd39     Gd       0.75090    0.47670    0.21310    1.000
    C194     C        0.77300    0.37400    0.03700    1.000
    C195     C        0.72830    0.40950    0.07560    1.000
    O155     O        0.75500    0.45530    0.10120    1.000
    O156     O        0.68780    0.41880    0.03290    1.000
    C196     C        0.80690    0.64040    0.05140    1.000
    C197     C        0.76400    0.63220    0.09010    1.000
    O157     O        0.78930    0.59300    0.13660    1.000
    O158     O        0.70470    0.63910    0.09350    1.000
    C198     C        0.77880    0.74790    0.97680    1.000
    Gd40     Gd       0.24910    0.52330    0.21310    1.000
    C199     C        0.22700    0.62600    0.03700    1.000
    C200     C        0.27170    0.59050    0.07560    1.000
    O159     O        0.24500    0.54470    0.10120    1.000
    O160     O        0.31220    0.58120    0.03290    1.000
    C201     C        0.64040    0.05140    0.80690    1.000
    C202     C        0.63220    0.09010    0.76400    1.000
    O161     O        0.59300    0.13660    0.78930    1.000
    O162     O        0.63910    0.09350    0.70470    1.000
    C203     C        0.74790    0.97680    0.77880    1.000
    Gd41     Gd       0.52330    0.21310    0.24910    1.000
    C204     C        0.62600    0.03700    0.22700    1.000
    C205     C        0.59050    0.07560    0.27170    1.000
    O163     O        0.54470    0.10120    0.24500    1.000
    O164     O        0.58120    0.03290    0.31220    1.000
    C206     C        0.35960    0.05140    0.19310    1.000
    C207     C        0.36780    0.09010    0.23600    1.000
    O165     O        0.40700    0.13660    0.21070    1.000
    O166     O        0.36090    0.09350    0.29530    1.000
    C208     C        0.25210    0.97680    0.22120    1.000
    Gd42     Gd       0.47670    0.21310    0.75090    1.000
    C209     C        0.37400    0.03700    0.77300    1.000
    C210     C        0.40950    0.07560    0.72830    1.000
    O167     O        0.45530    0.10120    0.75500    1.000
    O168     O        0.41880    0.03290    0.68780    1.000
    C211     C        0.35960    0.94860    0.80690    1.000
    C212     C        0.36780    0.90990    0.76400    1.000
    O169     O        0.40700    0.86340    0.78930    1.000
    O170     O        0.36090    0.90650    0.70470    1.000
    C213     C        0.25210    0.02320    0.77880    1.000
    Gd43     Gd       0.47670    0.78690    0.24910    1.000
    C214     C        0.37400    0.96300    0.22700    1.000
    C215     C        0.40950    0.92440    0.27170    1.000
    O171     O        0.45530    0.89880    0.24500    1.000
    O172     O        0.41880    0.96710    0.31220    1.000
    C216     C        0.64040    0.94860    0.19310    1.000
    C217     C        0.63220    0.90990    0.23600    1.000
    O173     O        0.59300    0.86340    0.21070    1.000
    O174     O        0.63910    0.90650    0.29530    1.000
    C218     C        0.74790    0.02320    0.22120    1.000
    Gd44     Gd       0.52330    0.78690    0.75090    1.000
    C219     C        0.62600    0.96300    0.77300    1.000
    C220     C        0.59050    0.92440    0.72830    1.000
    O175     O        0.54470    0.89880    0.75500    1.000
    O176     O        0.58120    0.96710    0.68780    1.000
    C221     C        0.05140    0.19310    0.35960    1.000
    C222     C        0.09010    0.23600    0.36780    1.000
    O177     O        0.13660    0.21070    0.40700    1.000
    O178     O        0.09350    0.29530    0.36090    1.000
    C223     C        0.97680    0.22120    0.25210    1.000
    Gd45     Gd       0.21310    0.75090    0.47670    1.000
    C224     C        0.03700    0.77300    0.37400    1.000
    C225     C        0.07560    0.72830    0.40950    1.000
    O179     O        0.10120    0.75500    0.45530    1.000
    O180     O        0.03290    0.68780    0.41880    1.000
    C226     C        0.05140    0.80690    0.64040    1.000
    C227     C        0.09010    0.76400    0.63220    1.000
    O181     O        0.13660    0.78930    0.59300    1.000
    O182     O        0.09350    0.70470    0.63910    1.000
    C228     C        0.97680    0.77880    0.74790    1.000
    Gd46     Gd       0.21310    0.24910    0.52330    1.000
    C229     C        0.03700    0.22700    0.62600    1.000
    C230     C        0.07560    0.27170    0.59050    1.000
    O183     O        0.10120    0.24500    0.54470    1.000
    O184     O        0.03290    0.31220    0.58120    1.000
    C231     C        0.94860    0.19310    0.64040    1.000
    C232     C        0.90990    0.23600    0.63220    1.000
    O185     O        0.86340    0.21070    0.59300    1.000
    O186     O        0.90650    0.29530    0.63910    1.000
    C233     C        0.02320    0.22120    0.74790    1.000
    Gd47     Gd       0.78690    0.75090    0.52330    1.000
    C234     C        0.96300    0.77300    0.62600    1.000
    C235     C        0.92440    0.72830    0.59050    1.000
    O187     O        0.89880    0.75500    0.54470    1.000
    O188     O        0.96710    0.68780    0.58120    1.000
    C236     C        0.94860    0.80690    0.35960    1.000
    C237     C        0.90990    0.76400    0.36780    1.000
    O189     O        0.86340    0.78930    0.40700    1.000
    O190     O        0.90650    0.70470    0.36090    1.000
    C238     C        0.02320    0.77880    0.25210    1.000
    Gd48     Gd       0.78690    0.24910    0.47670    1.000
    C239     C        0.96300    0.22700    0.37400    1.000
    C240     C        0.92440    0.27170    0.40950    1.000
    O191     O        0.89880    0.24500    0.45530    1.000
    O192     O        0.96710    0.31220    0.41880    1.000
    Gd49     Gd       0.50000    0.80275    0.80275    1.000
    Gd50     Gd       0.50000    0.19725    0.80275    1.000
    Gd51     Gd       0.50000    0.80275    0.19725    1.000
    Gd52     Gd       0.50000    0.19725    0.19725    1.000
    Gd53     Gd       0.80275    0.50000    0.80275    1.000
    Gd54     Gd       0.80275    0.50000    0.19725    1.000
    Gd55     Gd       0.19725    0.50000    0.80275    1.000
    Gd56     Gd       0.19725    0.50000    0.19725    1.000
    Gd57     Gd       0.80275    0.80275    0.50000    1.000
    Gd58     Gd       0.19725    0.80275    0.50000    1.000
    Gd59     Gd       0.80275    0.19725    0.50000    1.000
    Gd60     Gd       0.19725    0.19725    0.50000    1.000
    Ni1      Ni       0.32794    0.67206    0.00000    1.000
    Ni2      Ni       0.67206    0.32794    0.00000    1.000
    Ni3      Ni       0.67206    0.67206    0.00000    1.000
    Ni4      Ni       0.32794    0.32794    0.00000    1.000
    Ni5      Ni       0.00000    0.32794    0.67206    1.000
    Ni6      Ni       0.00000    0.67206    0.32794    1.000
    Ni7      Ni       0.00000    0.67206    0.67206    1.000
    Ni8      Ni       0.00000    0.32794    0.32794    1.000
    Ni9      Ni       0.67206    0.00000    0.32794    1.000
    Ni10     Ni       0.32794    0.00000    0.67206    1.000
    Ni11     Ni       0.67206    0.00000    0.67206    1.000
    Ni12     Ni       0.32794    0.00000    0.32794    1.000
    N1       N        0.32710    0.77150    0.00000    1.000
    C241     C        0.24700    0.85100    0.00000    1.000
    N2       N        0.67290    0.22850    0.00000    1.000
    C242     C        0.75300    0.14900    0.00000    1.000
    N3       N        0.67290    0.77150    0.00000    1.000
    C243     C        0.75300    0.85100    0.00000    1.000
    N4       N        0.32710    0.22850    0.00000    1.000
    C244     C        0.24700    0.14900    0.00000    1.000
    N5       N        0.00000    0.32710    0.77150    1.000
    C245     C        0.00000    0.24700    0.85100    1.000
    N6       N        0.00000    0.67290    0.22850    1.000
    C246     C        0.00000    0.75300    0.14900    1.000
    N7       N        0.00000    0.67290    0.77150    1.000
    C247     C        0.00000    0.75300    0.85100    1.000
    N8       N        0.00000    0.32710    0.22850    1.000
    C248     C        0.00000    0.24700    0.14900    1.000
    N9       N        0.77150    0.00000    0.32710    1.000
    C249     C        0.85100    0.00000    0.24700    1.000
    N10      N        0.22850    0.00000    0.67290    1.000
    C250     C        0.14900    0.00000    0.75300    1.000
    N11      N        0.77150    0.00000    0.67290    1.000
    C251     C        0.85100    0.00000    0.75300    1.000
    N12      N        0.22850    0.00000    0.32710    1.000
    C252     C        0.14900    0.00000    0.24700    1.000
    N13      N        0.77150    0.32710    0.00000    1.000
    C253     C        0.85100    0.24700    0.00000    1.000
    N14      N        0.22850    0.67290    0.00000    1.000
    C254     C        0.14900    0.75300    0.00000    1.000
    N15      N        0.77150    0.67290    0.00000    1.000
    C255     C        0.85100    0.75300    0.00000    1.000
    N16      N        0.22850    0.32710    0.00000    1.000
    C256     C        0.14900    0.24700    0.00000    1.000
    N17      N        0.32710    0.00000    0.22850    1.000
    C257     C        0.24700    0.00000    0.14900    1.000
    N18      N        0.67290    0.00000    0.77150    1.000
    C258     C        0.75300    0.00000    0.85100    1.000
    N19      N        0.67290    0.00000    0.22850    1.000
    C259     C        0.75300    0.00000    0.14900    1.000
    N20      N        0.32710    0.00000    0.77150    1.000
    C260     C        0.24700    0.00000    0.85100    1.000
    N21      N        0.00000    0.77150    0.67290    1.000
    C261     C        0.00000    0.85100    0.75300    1.000
    N22      N        0.00000    0.22850    0.32710    1.000
    C262     C        0.00000    0.14900    0.24700    1.000
    N23      N        0.00000    0.77150    0.32710    1.000
    C263     C        0.00000    0.85100    0.24700    1.000
    N24      N        0.00000    0.22850    0.67290    1.000
    C264     C        0.00000    0.14900    0.75300    1.000
    O193     O        0.58930    0.74340    0.74340    1.000
    O194     O        0.41070    0.25660    0.74340    1.000
    O195     O        0.41070    0.74340    0.25660    1.000
    O196     O        0.58930    0.25660    0.25660    1.000
    O197     O        0.74340    0.58930    0.74340    1.000
    O198     O        0.74340    0.41070    0.25660    1.000
    O199     O        0.25660    0.41070    0.74340    1.000
    O200     O        0.25660    0.58930    0.25660    1.000
    O201     O        0.74340    0.74340    0.58930    1.000
    O202     O        0.25660    0.74340    0.41070    1.000
    O203     O        0.74340    0.25660    0.41070    1.000
    O204     O        0.25660    0.25660    0.58930    1.000
    O205     O        0.74340    0.58930    0.25660    1.000
    O206     O        0.25660    0.41070    0.25660    1.000
    O207     O        0.74340    0.41070    0.74340    1.000
    O208     O        0.25660    0.58930    0.74340    1.000
    O209     O        0.58930    0.74340    0.25660    1.000
    O210     O        0.41070    0.74340    0.74340    1.000
    O211     O        0.41070    0.25660    0.25660    1.000
    O212     O        0.58930    0.25660    0.74340    1.000
    O213     O        0.74340    0.74340    0.41070    1.000
    O214     O        0.74340    0.25660    0.58930    1.000
    O215     O        0.25660    0.74340    0.58930    1.000
    O216     O        0.25660    0.25660    0.41070    1.000
