# CIF file generated by openbabel 3.1.0, see https://openbabel.org
data_I
_chemical_name_common 'XAFFER_clean'
_cell_length_a 17.953
_cell_length_b 19.8193
_cell_length_c 23.023
_cell_angle_alpha 90
_cell_angle_beta 90
_cell_angle_gamma 116.931
_space_group_name_H-M_alt 'P 1'
_space_group_name_Hall 'P 1'
loop_
    _symmetry_equiv_pos_as_xyz
    x,y,z
loop_
    _atom_site_label
    _atom_site_type_symbol
    _atom_site_fract_x
    _atom_site_fract_y
    _atom_site_fract_z
    _atom_site_occupancy
    Zn1      Zn       0.08535    0.56344    0.00000    1.000
    Zn2      Zn       0.91465    0.43656    0.00000    1.000
    Zn3      Zn       0.47809    0.56344    0.50000    1.000
    Zn4      Zn       0.52191    0.43656    0.50000    1.000
    H1       H        0.19180    0.46920    0.87230    1.000
    H2       H        0.99720    0.24640    0.79450    1.000
    H3       H        0.95780    0.30540    0.86600    1.000
    H4       H        0.23210    0.40820    0.80510    1.000
    H5       H        0.11660    0.18620    0.83430    1.000
    H6       H        0.05130    0.05720    0.83430    1.000
    H7       H        0.80820    0.53080    0.87230    1.000
    H8       H        0.00280    0.75360    0.79450    1.000
    H9       H        0.04220    0.69460    0.86600    1.000
    H10      H        0.76790    0.59180    0.80510    1.000
    H11      H        0.88340    0.81380    0.83430    1.000
    H12      H        0.94870    0.94280    0.83430    1.000
    H13      H        0.27740    0.46920    0.62770    1.000
    H14      H        0.24920    0.24640    0.70550    1.000
    H15      H        0.34760    0.30540    0.63400    1.000
    H16      H        0.17610    0.40820    0.69490    1.000
    H17      H        0.06960    0.18620    0.66570    1.000
    H18      H        0.00590    0.05720    0.66570    1.000
    H19      H        0.72260    0.53080    0.62770    1.000
    H20      H        0.75080    0.75360    0.70550    1.000
    H21      H        0.65240    0.69460    0.63400    1.000
    H22      H        0.82390    0.59180    0.69490    1.000
    H23      H        0.93040    0.81380    0.66570    1.000
    H24      H        0.99410    0.94280    0.66570    1.000
    H25      H        0.80820    0.53080    0.12770    1.000
    H26      H        0.00280    0.75360    0.20550    1.000
    H27      H        0.04220    0.69460    0.13400    1.000
    H28      H        0.76790    0.59180    0.19490    1.000
    H29      H        0.88340    0.81380    0.16570    1.000
    H30      H        0.94870    0.94280    0.16570    1.000
    H31      H        0.19180    0.46920    0.12770    1.000
    H32      H        0.99720    0.24640    0.20550    1.000
    H33      H        0.95780    0.30540    0.13400    1.000
    H34      H        0.23210    0.40820    0.19490    1.000
    H35      H        0.11660    0.18620    0.16570    1.000
    H36      H        0.05130    0.05720    0.16570    1.000
    H37      H        0.72260    0.53080    0.37230    1.000
    H38      H        0.75080    0.75360    0.29450    1.000
    H39      H        0.65240    0.69460    0.36600    1.000
    H40      H        0.82390    0.59180    0.30510    1.000
    H41      H        0.93040    0.81380    0.33430    1.000
    H42      H        0.99410    0.94280    0.33430    1.000
    H43      H        0.27740    0.46920    0.37230    1.000
    H44      H        0.24920    0.24640    0.29450    1.000
    H45      H        0.34760    0.30540    0.36600    1.000
    H46      H        0.17610    0.40820    0.30510    1.000
    H47      H        0.06960    0.18620    0.33430    1.000
    H48      H        0.00590    0.05720    0.33430    1.000
    C1       C        0.04628    0.43466    0.92152    1.000
    C2       C        0.07074    0.39522    0.87697    1.000
    C3       C        0.15204    0.42362    0.85721    1.000
    C4       C        0.11731    0.31960    0.79193    1.000
    C5       C        0.03725    0.29130    0.81066    1.000
    C6       C        0.01297    0.32716    0.85333    1.000
    C7       C        0.17641    0.38762    0.81652    1.000
    C8       C        0.09396    0.16026    0.79995    1.000
    C9       C        0.05500    0.08296    0.79986    1.000
    C10      C        0.95372    0.56534    0.92152    1.000
    C11      C        0.92926    0.60478    0.87697    1.000
    C12      C        0.84796    0.57638    0.85721    1.000
    C13      C        0.88269    0.68040    0.79193    1.000
    C14      C        0.96275    0.70870    0.81066    1.000
    C15      C        0.98703    0.67284    0.85333    1.000
    C16      C        0.82359    0.61238    0.81652    1.000
    C17      C        0.90604    0.83974    0.79995    1.000
    C18      C        0.94500    0.91704    0.79986    1.000
    C19      C        0.38838    0.43466    0.57848    1.000
    C20      C        0.32448    0.39522    0.62303    1.000
    C21      C        0.27158    0.42362    0.64279    1.000
    C22      C        0.20229    0.31960    0.70807    1.000
    C23      C        0.25405    0.29130    0.68934    1.000
    C24      C        0.31419    0.32716    0.64667    1.000
    C25      C        0.21121    0.38762    0.68348    1.000
    C26      C        0.06630    0.16026    0.70005    1.000
    C27      C        0.02796    0.08296    0.70014    1.000
    C28      C        0.61162    0.56534    0.57848    1.000
    C29      C        0.67552    0.60478    0.62303    1.000
    C30      C        0.72842    0.57638    0.64279    1.000
    C31      C        0.79771    0.68040    0.70807    1.000
    C32      C        0.74595    0.70870    0.68934    1.000
    C33      C        0.68581    0.67284    0.64667    1.000
    C34      C        0.78879    0.61238    0.68348    1.000
    C35      C        0.93370    0.83974    0.70005    1.000
    C36      C        0.97204    0.91704    0.70014    1.000
    C37      C        0.95372    0.56534    0.07848    1.000
    C38      C        0.92926    0.60478    0.12303    1.000
    C39      C        0.84796    0.57638    0.14279    1.000
    C40      C        0.88269    0.68040    0.20807    1.000
    C41      C        0.96275    0.70870    0.18934    1.000
    C42      C        0.98703    0.67284    0.14667    1.000
    C43      C        0.82359    0.61238    0.18348    1.000
    C44      C        0.90604    0.83974    0.20005    1.000
    C45      C        0.94500    0.91704    0.20014    1.000
    C46      C        0.04628    0.43466    0.07848    1.000
    C47      C        0.07074    0.39522    0.12303    1.000
    C48      C        0.15204    0.42362    0.14279    1.000
    C49      C        0.11731    0.31960    0.20807    1.000
    C50      C        0.03725    0.29130    0.18934    1.000
    C51      C        0.01297    0.32716    0.14667    1.000
    C52      C        0.17641    0.38762    0.18348    1.000
    C53      C        0.09396    0.16026    0.20005    1.000
    C54      C        0.05500    0.08296    0.20014    1.000
    C55      C        0.61162    0.56534    0.42152    1.000
    C56      C        0.67552    0.60478    0.37697    1.000
    C57      C        0.72842    0.57638    0.35721    1.000
    C58      C        0.79771    0.68040    0.29193    1.000
    C59      C        0.74595    0.70870    0.31066    1.000
    C60      C        0.68581    0.67284    0.35333    1.000
    C61      C        0.78879    0.61238    0.31652    1.000
    C62      C        0.93370    0.83974    0.29995    1.000
    C63      C        0.97204    0.91704    0.29986    1.000
    C64      C        0.38838    0.43466    0.42152    1.000
    C65      C        0.32448    0.39522    0.37697    1.000
    C66      C        0.27158    0.42362    0.35721    1.000
    C67      C        0.20229    0.31960    0.29193    1.000
    C68      C        0.25405    0.29130    0.31066    1.000
    C69      C        0.31419    0.32716    0.35333    1.000
    C70      C        0.21121    0.38762    0.31652    1.000
    C71      C        0.06630    0.16026    0.29995    1.000
    C72      C        0.02796    0.08296    0.29986    1.000
    C73      C        0.09989    0.19978    0.75000    1.000
    C74      C        0.02118    0.04236    0.75000    1.000
    C75      C        0.90011    0.80022    0.75000    1.000
    C76      C        0.97882    0.95764    0.75000    1.000
    C77      C        0.90011    0.80022    0.25000    1.000
    C78      C        0.97882    0.95764    0.25000    1.000
    C79      C        0.09989    0.19978    0.25000    1.000
    C80      C        0.02118    0.04236    0.25000    1.000
    N1       N        0.14054    0.28108    0.75000    1.000
    N2       N        0.85946    0.71892    0.75000    1.000
    N3       N        0.85946    0.71892    0.25000    1.000
    N4       N        0.14054    0.28108    0.25000    1.000
    O1       O        0.10140    0.49794    0.93857    1.000
    O2       O        0.97131    0.40224    0.93885    1.000
    O3       O        0.89860    0.50206    0.93857    1.000
    O4       O        0.02869    0.59776    0.93885    1.000
    O5       O        0.39654    0.49794    0.56143    1.000
    O6       O        0.43093    0.40224    0.56115    1.000
    O7       O        0.60346    0.50206    0.56143    1.000
    O8       O        0.56907    0.59776    0.56115    1.000
    O9       O        0.89860    0.50206    0.06143    1.000
    O10      O        0.02869    0.59776    0.06115    1.000
    O11      O        0.10140    0.49794    0.06143    1.000
    O12      O        0.97131    0.40224    0.06115    1.000
    O13      O        0.60346    0.50206    0.43857    1.000
    O14      O        0.56907    0.59776    0.43885    1.000
    O15      O        0.39654    0.49794    0.43857    1.000
    O16      O        0.43093    0.40224    0.43885    1.000
