# CIF file generated by openbabel 3.1.0, see https://openbabel.org
data_I
_chemical_name_common 'UDEPIE_clean'
_cell_length_a 16.4166
_cell_length_b 16.4166
_cell_length_c 16.4166
_cell_angle_alpha 96.0643
_cell_angle_beta 116.563
_cell_angle_gamma 116.563
_space_group_name_H-M_alt 'P 1'
_space_group_name_Hall 'P 1'
loop_
    _symmetry_equiv_pos_as_xyz
    x,y,z
loop_
    _atom_site_label
    _atom_site_type_symbol
    _atom_site_fract_x
    _atom_site_fract_y
    _atom_site_fract_z
    _atom_site_occupancy
    H1       H        0.50460    0.46150    0.19770    1.000
    H2       H        0.44280    0.47420    0.30200    1.000
    H3       H        0.53200    0.62690    0.42130    1.000
    H4       H        0.68120    0.75910    0.44230    1.000
    Pb1      Pb       0.82508    0.84658    0.33106    1.000
    C1       C        0.68430    0.51640    0.00590    1.000
    C2       C        0.69750    0.57510    0.09100    1.000
    C3       C        0.76850    0.67520    0.14590    1.000
    C4       C        0.67010    0.60850    0.20100    1.000
    C5       C        0.84710    0.75960    0.13930    1.000
    C6       C        0.62920    0.60540    0.26360    1.000
    C7       C        0.53950    0.52130    0.24740    1.000
    C8       C        0.50230    0.52920    0.30950    1.000
    C9       C        0.55600    0.61980    0.38100    1.000
    C10      C        0.64480    0.69910    0.39230    1.000
    N1       N        0.63530    0.53300    0.12510    1.000
    N2       N        0.75070    0.69470    0.21660    1.000
    N3       N        0.68200    0.69540    0.33640    1.000
    O1       O        0.61970    0.42790    0.96640    1.000
    O2       O        0.74530    0.56450    0.97500    1.000
    O3       O        0.86440    0.74520    0.07420    1.000
    O4       O        0.89110    0.84310    0.20080    1.000
    H5       H        0.99540    0.19310    0.95690    1.000
    H6       H        0.05720    0.35920    0.03140    1.000
    H7       H        0.96800    0.38930    0.09490    1.000
    H8       H        0.81880    0.26110    0.07790    1.000
    Pb2      Pb       0.67492    0.00598    0.02150    1.000
    C11      C        0.81570    0.82160    0.83210    1.000
    C12      C        0.80250    0.89350    0.87760    1.000
    C13      C        0.73150    0.87740    0.90670    1.000
    C14      C        0.82990    0.03090    0.93840    1.000
    C15      C        0.65290    0.79220    0.91250    1.000
    C16      C        0.87080    0.13440    0.97620    1.000
    C17      C        0.96050    0.20790    0.98180    1.000
    C18      C        0.99770    0.30720    0.02690    1.000
    C19      C        0.94400    0.32500    0.06380    1.000
    C20      C        0.85520    0.24750    0.05430    1.000
    N4       N        0.86470    0.98980    0.89770    1.000
    N5       N        0.74930    0.96590    0.94400    1.000
    N6       N        0.81800    0.15440    0.01340    1.000
    O5       O        0.88030    0.84670    0.80820    1.000
    O6       O        0.75470    0.72970    0.81920    1.000
    O7       O        0.63560    0.70980    0.88080    1.000
    O8       O        0.60890    0.80970    0.95200    1.000
    H9       H        0.73620    0.19770    0.19310    1.000
    H10      H        0.82780    0.30200    0.35920    1.000
    H11      H        0.79440    0.42130    0.38930    1.000
    H12      H        0.68320    0.44230    0.26110    1.000
    Pb3      Pb       0.48448    0.33106    0.00598    1.000
    C21      C        0.48950    0.00590    0.82160    1.000
    C22      C        0.51590    0.09100    0.89350    1.000
    C23      C        0.47070    0.14590    0.87740    1.000
    C24      C        0.59250    0.20100    0.03090    1.000
    C25      C        0.37970    0.13930    0.79220    1.000
    C26      C        0.65820    0.26360    0.13440    1.000
    C27      C        0.72610    0.24740    0.20790    1.000
    C28      C        0.78030    0.30950    0.30720    1.000
    C29      C        0.76120    0.38100    0.32500    1.000
    C30      C        0.69320    0.39230    0.24750    1.000
    N7       N        0.59210    0.12510    0.98980    1.000
    N8       N        0.52190    0.21660    0.96590    1.000
    N9       N        0.64100    0.33640    0.15440    1.000
    O9       O        0.53850    0.96640    0.84670    1.000
    O10      O        0.41050    0.97500    0.72970    1.000
    O11      O        0.32900    0.07420    0.70980    1.000
    O12      O        0.35770    0.20080    0.80970    1.000
    H13      H        0.76380    0.95690    0.46150    1.000
    H14      H        0.67220    0.03140    0.47420    1.000
    H15      H        0.70560    0.09490    0.62690    1.000
    H16      H        0.81680    0.07790    0.75910    1.000
    Pb4      Pb       0.01552    0.02150    0.84658    1.000
    C31      C        0.01050    0.83210    0.51640    1.000
    C32      C        0.98410    0.87760    0.57510    1.000
    C33      C        0.02930    0.90670    0.67520    1.000
    C34      C        0.90750    0.93840    0.60850    1.000
    C35      C        0.12030    0.91250    0.75960    1.000
    C36      C        0.84180    0.97620    0.60540    1.000
    C37      C        0.77390    0.98180    0.52130    1.000
    C38      C        0.71970    0.02690    0.52920    1.000
    C39      C        0.73880    0.06380    0.61980    1.000
    C40      C        0.80680    0.05430    0.69910    1.000
    N10      N        0.90790    0.89770    0.53300    1.000
    N11      N        0.97810    0.94400    0.69470    1.000
    N12      N        0.85900    0.01340    0.69540    1.000
    O13      O        0.96150    0.80820    0.42790    1.000
    O14      O        0.08950    0.81920    0.56450    1.000
    O15      O        0.17100    0.88080    0.74520    1.000
    O16      O        0.14230    0.95200    0.84310    1.000
    H17      H        0.49540    0.53850    0.80230    1.000
    H18      H        0.55720    0.52580    0.69800    1.000
    H19      H        0.46800    0.37310    0.57870    1.000
    H20      H        0.31880    0.24090    0.55770    1.000
    Pb5      Pb       0.17492    0.15342    0.66894    1.000
    C41      C        0.31570    0.48360    0.99410    1.000
    C42      C        0.30250    0.42490    0.90900    1.000
    C43      C        0.23150    0.32480    0.85410    1.000
    C44      C        0.32990    0.39150    0.79900    1.000
    C45      C        0.15290    0.24040    0.86070    1.000
    C46      C        0.37080    0.39460    0.73640    1.000
    C47      C        0.46050    0.47870    0.75260    1.000
    C48      C        0.49770    0.47080    0.69050    1.000
    C49      C        0.44400    0.38020    0.61900    1.000
    C50      C        0.35520    0.30090    0.60770    1.000
    N13      N        0.36470    0.46700    0.87490    1.000
    N14      N        0.24930    0.30530    0.78340    1.000
    N15      N        0.31800    0.30460    0.66360    1.000
    O17      O        0.38030    0.57210    0.03360    1.000
    O18      O        0.25470    0.43550    0.02500    1.000
    O19      O        0.13560    0.25480    0.92580    1.000
    O20      O        0.10890    0.15690    0.79920    1.000
    H21      H        0.00460    0.80690    0.04310    1.000
    H22      H        0.94280    0.64080    0.96860    1.000
    H23      H        0.03200    0.61070    0.90510    1.000
    H24      H        0.18120    0.73890    0.92210    1.000
    Pb6      Pb       0.32508    0.99402    0.97850    1.000
    C51      C        0.18430    0.17840    0.16790    1.000
    C52      C        0.19750    0.10650    0.12240    1.000
    C53      C        0.26850    0.12260    0.09330    1.000
    C54      C        0.17010    0.96910    0.06160    1.000
    C55      C        0.34710    0.20780    0.08750    1.000
    C56      C        0.12920    0.86560    0.02380    1.000
    C57      C        0.03950    0.79210    0.01820    1.000
    C58      C        0.00230    0.69280    0.97310    1.000
    C59      C        0.05600    0.67500    0.93620    1.000
    C60      C        0.14480    0.75250    0.94570    1.000
    N16      N        0.13530    0.01020    0.10230    1.000
    N17      N        0.25070    0.03410    0.05600    1.000
    N18      N        0.18200    0.84560    0.98660    1.000
    O21      O        0.11970    0.15330    0.19180    1.000
    O22      O        0.24530    0.27030    0.18080    1.000
    O23      O        0.36440    0.29020    0.11920    1.000
    O24      O        0.39110    0.19030    0.04800    1.000
    H25      H        0.26380    0.80230    0.80690    1.000
    H26      H        0.17220    0.69800    0.64080    1.000
    H27      H        0.20560    0.57870    0.61070    1.000
    H28      H        0.31680    0.55770    0.73890    1.000
    Pb7      Pb       0.51552    0.66894    0.99402    1.000
    C61      C        0.51050    0.99410    0.17840    1.000
    C62      C        0.48410    0.90900    0.10650    1.000
    C63      C        0.52930    0.85410    0.12260    1.000
    C64      C        0.40750    0.79900    0.96910    1.000
    C65      C        0.62030    0.86070    0.20780    1.000
    C66      C        0.34180    0.73640    0.86560    1.000
    C67      C        0.27390    0.75260    0.79210    1.000
    C68      C        0.21970    0.69050    0.69280    1.000
    C69      C        0.23880    0.61900    0.67500    1.000
    C70      C        0.30680    0.60770    0.75250    1.000
    N19      N        0.40790    0.87490    0.01020    1.000
    N20      N        0.47810    0.78340    0.03410    1.000
    N21      N        0.35900    0.66360    0.84560    1.000
    O25      O        0.46150    0.03360    0.15330    1.000
    O26      O        0.58950    0.02500    0.27030    1.000
    O27      O        0.67100    0.92580    0.29020    1.000
    O28      O        0.64230    0.79920    0.19030    1.000
    H29      H        0.23620    0.04310    0.53850    1.000
    H30      H        0.32780    0.96860    0.52580    1.000
    H31      H        0.29440    0.90510    0.37310    1.000
    H32      H        0.18320    0.92210    0.24090    1.000
    Pb8      Pb       0.98448    0.97850    0.15342    1.000
    C71      C        0.98950    0.16790    0.48360    1.000
    C72      C        0.01590    0.12240    0.42490    1.000
    C73      C        0.97070    0.09330    0.32480    1.000
    C74      C        0.09250    0.06160    0.39150    1.000
    C75      C        0.87970    0.08750    0.24040    1.000
    C76      C        0.15820    0.02380    0.39460    1.000
    C77      C        0.22610    0.01820    0.47870    1.000
    C78      C        0.28030    0.97310    0.47080    1.000
    C79      C        0.26120    0.93620    0.38020    1.000
    C80      C        0.19320    0.94570    0.30090    1.000
    N22      N        0.09210    0.10230    0.46700    1.000
    N23      N        0.02190    0.05600    0.30530    1.000
    N24      N        0.14100    0.98660    0.30460    1.000
    O29      O        0.03850    0.19180    0.57210    1.000
    O30      O        0.91050    0.18080    0.43550    1.000
    O31      O        0.82900    0.11920    0.25480    1.000
    O32      O        0.85770    0.04800    0.15690    1.000
