# CIF file generated by openbabel 3.1.0, see https://openbabel.org
data_I
_chemical_name_common 'image0'
_cell_length_a 8.0154
_cell_length_b 30.175
_cell_length_c 15.322
_cell_angle_alpha 90
_cell_angle_beta 90
_cell_angle_gamma 90
_space_group_name_H-M_alt 'P 1'
_space_group_name_Hall 'P 1'
loop_
    _symmetry_equiv_pos_as_xyz
    x,y,z
loop_
    _atom_site_label
    _atom_site_type_symbol
    _atom_site_fract_x
    _atom_site_fract_y
    _atom_site_fract_z
    _atom_site_occupancy
    Eu1      Eu       0.43541    0.90717    0.70442    1.000
    O1       O        0.25420    0.95990    0.65000    1.000
    O2       O        0.00120    0.96990    0.70880    1.000
    O3       O        0.39190    0.04200    0.38500    1.000
    O4       O        0.23600    0.09690    0.33720    1.000
    O5       O        0.15680    0.86920    0.68310    1.000
    O6       O        0.98770    0.83050    0.76950    1.000
    N1       N        0.92700    0.08240    0.56030    1.000
    C1       C        0.11710    0.98000    0.65820    1.000
    C2       C        0.09260    0.01950    0.60020    1.000
    C3       C        0.95860    0.04840    0.61140    1.000
    H1       H        0.88540    0.04320    0.65900    1.000
    C4       C        0.02520    0.08740    0.49080    1.000
    H2       H        0.00000    0.11060    0.45110    1.000
    C5       C        0.16220    0.06060    0.47270    1.000
    C6       C        0.19750    0.02680    0.52980    1.000
    H3       H        0.29290    0.00860    0.52110    1.000
    C7       C        0.26820    0.06620    0.39410    1.000
    C8       C        0.09430    0.83200    0.71000    1.000
    C9       C        0.14800    0.78960    0.66860    1.000
    C10      C        0.24200    0.78770    0.59170    1.000
    H4       H        0.27300    0.81490    0.56500    1.000
    Eu2      Eu       0.06459    0.09283    0.20442    1.000
    O7       O        0.24580    0.04010    0.15000    1.000
    O8       O        0.49880    0.03010    0.20880    1.000
    O9       O        0.10810    0.95800    0.88500    1.000
    O10      O        0.26400    0.90310    0.83720    1.000
    O11      O        0.34320    0.13080    0.18310    1.000
    O12      O        0.51230    0.16950    0.26950    1.000
    N2       N        0.57300    0.91760    0.06030    1.000
    C11      C        0.38290    0.02000    0.15820    1.000
    C12      C        0.40740    0.98050    0.10020    1.000
    C13      C        0.54140    0.95160    0.11140    1.000
    H5       H        0.61460    0.95680    0.15900    1.000
    C14      C        0.47480    0.91260    0.99080    1.000
    H6       H        0.50000    0.88940    0.95110    1.000
    C15      C        0.33780    0.93940    0.97270    1.000
    C16      C        0.30250    0.97320    0.02980    1.000
    H7       H        0.20710    0.99140    0.02110    1.000
    C17      C        0.23180    0.93380    0.89410    1.000
    C18      C        0.40570    0.16800    0.21000    1.000
    C19      C        0.35200    0.21040    0.16860    1.000
    C20      C        0.25800    0.21230    0.09170    1.000
    H8       H        0.22700    0.18510    0.06500    1.000
    Eu3      Eu       0.56459    0.40717    0.29558    1.000
    O13      O        0.74580    0.45990    0.35000    1.000
    O14      O        0.99880    0.46990    0.29120    1.000
    O15      O        0.60810    0.54200    0.61500    1.000
    O16      O        0.76400    0.59690    0.66280    1.000
    O17      O        0.84320    0.36920    0.31690    1.000
    O18      O        0.01230    0.33050    0.23050    1.000
    N3       N        0.07300    0.58240    0.43970    1.000
    C21      C        0.88290    0.48000    0.34180    1.000
    C22      C        0.90740    0.51950    0.39980    1.000
    C23      C        0.04140    0.54840    0.38860    1.000
    H9       H        0.11460    0.54320    0.34100    1.000
    C24      C        0.97480    0.58740    0.50920    1.000
    H10      H        0.00000    0.61060    0.54890    1.000
    C25      C        0.83780    0.56060    0.52730    1.000
    C26      C        0.80250    0.52680    0.47020    1.000
    H11      H        0.70710    0.50860    0.47890    1.000
    C27      C        0.73180    0.56620    0.60590    1.000
    C28      C        0.90570    0.33200    0.29000    1.000
    C29      C        0.85200    0.28960    0.33140    1.000
    C30      C        0.75800    0.28770    0.40830    1.000
    H12      H        0.72700    0.31490    0.43500    1.000
    Eu4      Eu       0.93541    0.59283    0.79558    1.000
    O19      O        0.75420    0.54010    0.85000    1.000
    O20      O        0.50120    0.53010    0.79120    1.000
    O21      O        0.89190    0.45800    0.11500    1.000
    O22      O        0.73600    0.40310    0.16280    1.000
    O23      O        0.65680    0.63080    0.81690    1.000
    O24      O        0.48770    0.66950    0.73050    1.000
    N4       N        0.42700    0.41760    0.93970    1.000
    C31      C        0.61710    0.52000    0.84180    1.000
    C32      C        0.59260    0.48050    0.89980    1.000
    C33      C        0.45860    0.45160    0.88860    1.000
    H13      H        0.38540    0.45680    0.84100    1.000
    C34      C        0.52520    0.41260    0.00920    1.000
    H14      H        0.50000    0.38940    0.04890    1.000
    C35      C        0.66220    0.43940    0.02730    1.000
    C36      C        0.69750    0.47320    0.97020    1.000
    H15      H        0.79290    0.49140    0.97890    1.000
    C37      C        0.76820    0.43380    0.10590    1.000
    C38      C        0.59430    0.66800    0.79000    1.000
    C39      C        0.64800    0.71040    0.83140    1.000
    C40      C        0.74200    0.71230    0.90830    1.000
    H16      H        0.77300    0.68510    0.93500    1.000
    Eu5      Eu       0.56459    0.09283    0.29558    1.000
    O25      O        0.74580    0.04010    0.35000    1.000
    O26      O        0.99880    0.03010    0.29120    1.000
    O27      O        0.60810    0.95800    0.61500    1.000
    O28      O        0.76400    0.90310    0.66280    1.000
    O29      O        0.84320    0.13080    0.31690    1.000
    O30      O        0.01230    0.16950    0.23050    1.000
    N5       N        0.07300    0.91760    0.43970    1.000
    C41      C        0.88290    0.02000    0.34180    1.000
    C42      C        0.90740    0.98050    0.39980    1.000
    C43      C        0.04140    0.95160    0.38860    1.000
    H17      H        0.11460    0.95680    0.34100    1.000
    C44      C        0.97480    0.91260    0.50920    1.000
    H18      H        0.00000    0.88940    0.54890    1.000
    C45      C        0.83780    0.93940    0.52730    1.000
    C46      C        0.80250    0.97320    0.47020    1.000
    H19      H        0.70710    0.99140    0.47890    1.000
    C47      C        0.73180    0.93380    0.60590    1.000
    C48      C        0.90570    0.16800    0.29000    1.000
    C49      C        0.85200    0.21040    0.33140    1.000
    C50      C        0.75800    0.21230    0.40830    1.000
    H20      H        0.72700    0.18510    0.43500    1.000
    Eu6      Eu       0.93541    0.90717    0.79558    1.000
    O31      O        0.75420    0.95990    0.85000    1.000
    O32      O        0.50120    0.96990    0.79120    1.000
    O33      O        0.89190    0.04200    0.11500    1.000
    O34      O        0.73600    0.09690    0.16280    1.000
    O35      O        0.65680    0.86920    0.81690    1.000
    O36      O        0.48770    0.83050    0.73050    1.000
    N6       N        0.42700    0.08240    0.93970    1.000
    C51      C        0.61710    0.98000    0.84180    1.000
    C52      C        0.59260    0.01950    0.89980    1.000
    C53      C        0.45860    0.04840    0.88860    1.000
    H21      H        0.38540    0.04320    0.84100    1.000
    C54      C        0.52520    0.08740    0.00920    1.000
    H22      H        0.50000    0.11060    0.04890    1.000
    C55      C        0.66220    0.06060    0.02730    1.000
    C56      C        0.69750    0.02680    0.97020    1.000
    H23      H        0.79290    0.00860    0.97890    1.000
    C57      C        0.76820    0.06620    0.10590    1.000
    C58      C        0.59430    0.83200    0.79000    1.000
    C59      C        0.64800    0.78960    0.83140    1.000
    C60      C        0.74200    0.78770    0.90830    1.000
    H24      H        0.77300    0.81490    0.93500    1.000
    Eu7      Eu       0.43541    0.59283    0.70442    1.000
    O37      O        0.25420    0.54010    0.65000    1.000
    O38      O        0.00120    0.53010    0.70880    1.000
    O39      O        0.39190    0.45800    0.38500    1.000
    O40      O        0.23600    0.40310    0.33720    1.000
    O41      O        0.15680    0.63080    0.68310    1.000
    O42      O        0.98770    0.66950    0.76950    1.000
    N7       N        0.92700    0.41760    0.56030    1.000
    C61      C        0.11710    0.52000    0.65820    1.000
    C62      C        0.09260    0.48050    0.60020    1.000
    C63      C        0.95860    0.45160    0.61140    1.000
    H25      H        0.88540    0.45680    0.65900    1.000
    C64      C        0.02520    0.41260    0.49080    1.000
    H26      H        0.00000    0.38940    0.45110    1.000
    C65      C        0.16220    0.43940    0.47270    1.000
    C66      C        0.19750    0.47320    0.52980    1.000
    H27      H        0.29290    0.49140    0.52110    1.000
    C67      C        0.26820    0.43380    0.39410    1.000
    C68      C        0.09430    0.66800    0.71000    1.000
    C69      C        0.14800    0.71040    0.66860    1.000
    C70      C        0.24200    0.71230    0.59170    1.000
    H28      H        0.27300    0.68510    0.56500    1.000
    Eu8      Eu       0.06459    0.40717    0.20442    1.000
    O43      O        0.24580    0.45990    0.15000    1.000
    O44      O        0.49880    0.46990    0.20880    1.000
    O45      O        0.10810    0.54200    0.88500    1.000
    O46      O        0.26400    0.59690    0.83720    1.000
    O47      O        0.34320    0.36920    0.18310    1.000
    O48      O        0.51230    0.33050    0.26950    1.000
    N8       N        0.57300    0.58240    0.06030    1.000
    C71      C        0.38290    0.48000    0.15820    1.000
    C72      C        0.40740    0.51950    0.10020    1.000
    C73      C        0.54140    0.54840    0.11140    1.000
    H29      H        0.61460    0.54320    0.15900    1.000
    C74      C        0.47480    0.58740    0.99080    1.000
    H30      H        0.50000    0.61060    0.95110    1.000
    C75      C        0.33780    0.56060    0.97270    1.000
    C76      C        0.30250    0.52680    0.02980    1.000
    H31      H        0.20710    0.50860    0.02110    1.000
    C77      C        0.23180    0.56620    0.89410    1.000
    C78      C        0.40570    0.33200    0.21000    1.000
    C79      C        0.35200    0.28960    0.16860    1.000
    C80      C        0.25800    0.28770    0.09170    1.000
    H32      H        0.22700    0.31490    0.06500    1.000
    N9       N        0.29150    0.75000    0.55310    1.000
    C81      C        0.09970    0.75000    0.70460    1.000
    H33      H        0.03180    0.75000    0.75540    1.000
    N10      N        0.20850    0.25000    0.05310    1.000
    C82      C        0.40030    0.25000    0.20460    1.000
    H34      H        0.46820    0.25000    0.25540    1.000
    N11      N        0.70850    0.25000    0.44690    1.000
    C83      C        0.90030    0.25000    0.29540    1.000
    H35      H        0.96820    0.25000    0.24460    1.000
    N12      N        0.79150    0.75000    0.94690    1.000
    C84      C        0.59970    0.75000    0.79540    1.000
    H36      H        0.53180    0.75000    0.74460    1.000
