# CIF file generated by openbabel 3.1.0, see https://openbabel.org
data_I
_chemical_name_common 'image0'
_cell_length_a 16.2954
_cell_length_b 8.7619
_cell_length_c 20.755
_cell_angle_alpha 90
_cell_angle_beta 95.316
_cell_angle_gamma 90
_space_group_name_H-M_alt 'P 1'
_space_group_name_Hall 'P 1'
loop_
    _symmetry_equiv_pos_as_xyz
    x,y,z
loop_
    _atom_site_label
    _atom_site_type_symbol
    _atom_site_fract_x
    _atom_site_fract_y
    _atom_site_fract_z
    _atom_site_occupancy
    Sm1      Sm       0.24185    0.21970    0.71171    1.000
    O1       O        0.12250    0.35630    0.66120    1.000
    O2       O        0.37140    0.31820    0.74790    1.000
    O3       O        0.17970    0.53420    0.84210    1.000
    O4       O        0.17840    0.29780    0.80390    1.000
    O5       O        0.36510    0.54050    0.79840    1.000
    O6       O        0.21050    0.52720    0.70418    1.000
    N1       N        0.98450    0.93490    0.49890    1.000
    N2       N        0.75720    0.46050    0.83940    1.000
    N3       N        0.78710    0.36140    0.81160    1.000
    C1       C        0.14930    0.49010    0.66530    1.000
    C2       C        0.10820    0.60740    0.61980    1.000
    C3       C        0.14760    0.74630    0.60990    1.000
    H1       H        0.19990    0.76480    0.63020    1.000
    C4       C        0.10910    0.85560    0.57010    1.000
    H2       H        0.13500    0.94840    0.56400    1.000
    C5       C        0.03100    0.82610    0.53880    1.000
    C6       C        0.99450    0.68570    0.54580    1.000
    H3       H        0.94400    0.66450    0.52290    1.000
    C7       C        0.03210    0.57630    0.58640    1.000
    H4       H        0.00670    0.48250    0.59130    1.000
    C8       C        0.40410    0.42830    0.77980    1.000
    C9       C        0.49590    0.42380    0.79650    1.000
    C10      C        0.53390    0.53780    0.83530    1.000
    H5       H        0.50210    0.61410    0.85180    1.000
    C11      C        0.61790    0.53810    0.84950    1.000
    H6       H        0.64300    0.61150    0.87710    1.000
    C12      C        0.66410    0.42990    0.82270    1.000
    C13      C        0.62820    0.31200    0.78550    1.000
    H7       H        0.66050    0.23560    0.76960    1.000
    C14      C        0.54220    0.31040    0.77230    1.000
    H8       H        0.51670    0.23270    0.74730    1.000
    C15      C        0.14380    0.41410    0.82440    1.000
    C16      C        0.05160    0.40450    0.82750    1.000
    C17      C        0.01010    0.51640    0.85890    1.000
    H9       H        0.03910    0.59510    0.88080    1.000
    C18      C        0.92360    0.50960    0.85730    1.000
    H10      H        0.89520    0.58290    0.87880    1.000
    C19      C        0.88120    0.39410    0.82380    1.000
    C20      C        0.92300    0.28380    0.79420    1.000
    H11      H        0.89410    0.20450    0.77270    1.000
    C21      C        0.00800    0.28840    0.79580    1.000
    H12      H        0.03580    0.21240    0.77530    1.000
    Sm2      Sm       0.25815    0.71970    0.78829    1.000
    O7       O        0.37750    0.85630    0.83880    1.000
    O8       O        0.12860    0.81820    0.75210    1.000
    O9       O        0.32030    0.03420    0.65790    1.000
    O10      O        0.32160    0.79780    0.69610    1.000
    O11      O        0.13490    0.04050    0.70160    1.000
    O12      O        0.28950    0.02720    0.79582    1.000
    N4       N        0.51550    0.43490    0.00110    1.000
    N5       N        0.74280    0.96050    0.66060    1.000
    N6       N        0.71290    0.86140    0.68840    1.000
    C22      C        0.35070    0.99010    0.83470    1.000
    C23      C        0.39180    0.10740    0.88020    1.000
    C24      C        0.35240    0.24630    0.89010    1.000
    H13      H        0.30010    0.26480    0.86980    1.000
    C25      C        0.39090    0.35560    0.92990    1.000
    H14      H        0.36500    0.44840    0.93600    1.000
    C26      C        0.46900    0.32610    0.96120    1.000
    C27      C        0.50550    0.18570    0.95420    1.000
    H15      H        0.55600    0.16450    0.97710    1.000
    C28      C        0.46790    0.07630    0.91360    1.000
    H16      H        0.49330    0.98250    0.90870    1.000
    C29      C        0.09590    0.92830    0.72020    1.000
    C30      C        0.00410    0.92380    0.70350    1.000
    C31      C        0.96610    0.03780    0.66470    1.000
    H17      H        0.99790    0.11410    0.64820    1.000
    C32      C        0.88210    0.03810    0.65050    1.000
    H18      H        0.85700    0.11150    0.62290    1.000
    C33      C        0.83590    0.92990    0.67730    1.000
    C34      C        0.87180    0.81200    0.71450    1.000
    H19      H        0.83950    0.73560    0.73040    1.000
    C35      C        0.95780    0.81040    0.72770    1.000
    H20      H        0.98330    0.73270    0.75270    1.000
    C36      C        0.35620    0.91410    0.67560    1.000
    C37      C        0.44840    0.90450    0.67250    1.000
    C38      C        0.48990    0.01640    0.64110    1.000
    H21      H        0.46090    0.09510    0.61920    1.000
    C39      C        0.57640    0.00960    0.64270    1.000
    H22      H        0.60480    0.08290    0.62120    1.000
    C40      C        0.61880    0.89410    0.67620    1.000
    C41      C        0.57700    0.78380    0.70580    1.000
    H23      H        0.60590    0.70450    0.72730    1.000
    C42      C        0.49200    0.78840    0.70420    1.000
    H24      H        0.46420    0.71240    0.72470    1.000
    Sm3      Sm       0.75815    0.78030    0.28829    1.000
    O13      O        0.87750    0.64370    0.33880    1.000
    O14      O        0.62860    0.68180    0.25210    1.000
    O15      O        0.82030    0.46580    0.15790    1.000
    O16      O        0.82160    0.70220    0.19610    1.000
    O17      O        0.63490    0.45950    0.20160    1.000
    O18      O        0.78950    0.47280    0.29582    1.000
    N7       N        0.01550    0.06510    0.50110    1.000
    N8       N        0.24280    0.53950    0.16060    1.000
    N9       N        0.21290    0.63860    0.18840    1.000
    C43      C        0.85070    0.50990    0.33470    1.000
    C44      C        0.89180    0.39260    0.38020    1.000
    C45      C        0.85240    0.25370    0.39010    1.000
    H25      H        0.80010    0.23520    0.36980    1.000
    C46      C        0.89090    0.14440    0.42990    1.000
    H26      H        0.86500    0.05160    0.43600    1.000
    C47      C        0.96900    0.17390    0.46120    1.000
    C48      C        0.00550    0.31430    0.45420    1.000
    H27      H        0.05600    0.33550    0.47710    1.000
    C49      C        0.96790    0.42370    0.41360    1.000
    H28      H        0.99330    0.51750    0.40870    1.000
    C50      C        0.59590    0.57170    0.22020    1.000
    C51      C        0.50410    0.57620    0.20350    1.000
    C52      C        0.46610    0.46220    0.16470    1.000
    H29      H        0.49790    0.38590    0.14820    1.000
    C53      C        0.38210    0.46190    0.15050    1.000
    H30      H        0.35700    0.38850    0.12290    1.000
    C54      C        0.33590    0.57010    0.17730    1.000
    C55      C        0.37180    0.68800    0.21450    1.000
    H31      H        0.33950    0.76440    0.23040    1.000
    C56      C        0.45780    0.68960    0.22770    1.000
    H32      H        0.48330    0.76730    0.25270    1.000
    C57      C        0.85620    0.58590    0.17560    1.000
    C58      C        0.94840    0.59550    0.17250    1.000
    C59      C        0.98990    0.48360    0.14110    1.000
    H33      H        0.96090    0.40490    0.11920    1.000
    C60      C        0.07640    0.49040    0.14270    1.000
    H34      H        0.10480    0.41710    0.12120    1.000
    C61      C        0.11880    0.60590    0.17620    1.000
    C62      C        0.07700    0.71620    0.20580    1.000
    H35      H        0.10590    0.79550    0.22730    1.000
    C63      C        0.99200    0.71160    0.20420    1.000
    H36      H        0.96420    0.78760    0.22470    1.000
    Sm4      Sm       0.74185    0.28030    0.21171    1.000
    O19      O        0.62250    0.14370    0.16120    1.000
    O20      O        0.87140    0.18180    0.24790    1.000
    O21      O        0.67970    0.96580    0.34210    1.000
    O22      O        0.67840    0.20220    0.30390    1.000
    O23      O        0.86510    0.95950    0.29840    1.000
    O24      O        0.71050    0.97280    0.20418    1.000
    N10      N        0.48450    0.56510    0.99890    1.000
    N11      N        0.25720    0.03950    0.33940    1.000
    N12      N        0.28710    0.13860    0.31160    1.000
    C64      C        0.64930    0.00990    0.16530    1.000
    C65      C        0.60820    0.89260    0.11980    1.000
    C66      C        0.64760    0.75370    0.10990    1.000
    H37      H        0.69990    0.73520    0.13020    1.000
    C67      C        0.60910    0.64440    0.07010    1.000
    H38      H        0.63500    0.55160    0.06400    1.000
    C68      C        0.53100    0.67390    0.03880    1.000
    C69      C        0.49450    0.81430    0.04580    1.000
    H39      H        0.44400    0.83550    0.02290    1.000
    C70      C        0.53210    0.92370    0.08640    1.000
    H40      H        0.50670    0.01750    0.09130    1.000
    C71      C        0.90410    0.07170    0.27980    1.000
    C72      C        0.99590    0.07620    0.29650    1.000
    C73      C        0.03390    0.96220    0.33530    1.000
    H41      H        0.00210    0.88590    0.35180    1.000
    C74      C        0.11790    0.96190    0.34950    1.000
    H42      H        0.14300    0.88850    0.37710    1.000
    C75      C        0.16410    0.07010    0.32270    1.000
    C76      C        0.12820    0.18800    0.28550    1.000
    H43      H        0.16050    0.26440    0.26960    1.000
    C77      C        0.04220    0.18960    0.27230    1.000
    H44      H        0.01670    0.26730    0.24730    1.000
    C78      C        0.64380    0.08590    0.32440    1.000
    C79      C        0.55160    0.09550    0.32750    1.000
    C80      C        0.51010    0.98360    0.35890    1.000
    H45      H        0.53910    0.90490    0.38080    1.000
    C81      C        0.42360    0.99040    0.35730    1.000
    H46      H        0.39520    0.91710    0.37880    1.000
    C82      C        0.38120    0.10590    0.32380    1.000
    C83      C        0.42300    0.21620    0.29420    1.000
    H47      H        0.39410    0.29550    0.27270    1.000
    C84      C        0.50800    0.21160    0.29580    1.000
    H48      H        0.53580    0.28760    0.27530    1.000
