# CIF file generated by openbabel 3.1.0, see https://openbabel.org
data_I
_chemical_name_common 'AQMAND01_clean'
_cell_length_a 10.6026
_cell_length_b 10.6026
_cell_length_c 10.9735
_cell_angle_alpha 78.6595
_cell_angle_beta 62.5585
_cell_angle_gamma 108.634
_space_group_name_H-M_alt 'P 1'
_space_group_name_Hall 'P 1'
loop_
    _symmetry_equiv_pos_as_xyz
    x,y,z
loop_
    _atom_site_label
    _atom_site_type_symbol
    _atom_site_fract_x
    _atom_site_fract_y
    _atom_site_fract_z
    _atom_site_occupancy
    Nd1      Nd       0.44937    0.63595    0.61984    1.000
    Nd2      Nd       0.75579    0.06921    0.88016    1.000
    Nd3      Nd       0.55063    0.36405    0.38016    1.000
    Nd4      Nd       0.24421    0.93079    0.11984    1.000
    H1       H        0.03490    0.61660    0.68970    1.000
    H2       H        0.89440    0.51220    0.85780    1.000
    H3       H        0.80630    0.72460    0.81030    1.000
    H4       H        0.87000    0.75220    0.64220    1.000
    H5       H        0.96510    0.38340    0.31030    1.000
    H6       H        0.10560    0.48780    0.14220    1.000
    H7       H        0.19370    0.27540    0.18970    1.000
    H8       H        0.13000    0.24780    0.35780    1.000
    H9       H        0.70120    0.45120    0.75000    1.000
    H10      H        0.29880    0.54880    0.25000    1.000
    C1       C        0.04760    0.43070    0.75730    1.000
    C2       C        0.00730    0.55170    0.78280    1.000
    C3       C        0.09510    0.64980    0.83270    1.000
    C4       C        0.59950    0.37510    0.62560    1.000
    C5       C        0.68800    0.80490    0.74270    1.000
    C6       C        0.83450    0.79010    0.71720    1.000
    C7       C        0.98250    0.92780    0.66730    1.000
    C8       C        0.50070    0.22510    0.87440    1.000
    C9       C        0.95240    0.56930    0.24270    1.000
    C10      C        0.99270    0.44830    0.21720    1.000
    C11      C        0.90490    0.35020    0.16730    1.000
    C12      C        0.40050    0.62490    0.37440    1.000
    C13      C        0.31200    0.19510    0.25730    1.000
    C14      C        0.16550    0.20990    0.28280    1.000
    C15      C        0.01750    0.07220    0.33270    1.000
    C16      C        0.49930    0.77490    0.12560    1.000
    C17      C        0.62440    0.37440    0.75000    1.000
    C18      C        0.37560    0.62560    0.25000    1.000
    O1       O        0.18450    0.44270    0.71020    1.000
    O2       O        0.93200    0.31920    0.78580    1.000
    O3       O        0.01610    0.68870    0.92720    1.000
    O4       O        0.24480    0.69200    0.77420    1.000
    O5       O        0.53940    0.44990    0.59190    1.000
    O6       O        0.63430    0.29380    0.55890    1.000
    O7       O        0.65290    0.89470    0.78980    1.000
    O8       O        0.60500    0.71780    0.71420    1.000
    O9       O        0.11590    0.94330    0.57280    1.000
    O10      O        0.96620    0.01900    0.72580    1.000
    O11      O        0.54180    0.13130    0.90810    1.000
    O12      O        0.35270    0.19320    0.94110    1.000
    O13      O        0.81550    0.55730    0.28980    1.000
    O14      O        0.06800    0.68080    0.21420    1.000
    O15      O        0.98390    0.31130    0.07280    1.000
    O16      O        0.75520    0.30800    0.22580    1.000
    O17      O        0.46060    0.55010    0.40810    1.000
    O18      O        0.36570    0.70620    0.44110    1.000
    O19      O        0.34710    0.10530    0.21020    1.000
    O20      O        0.39500    0.28220    0.28580    1.000
    O21      O        0.88410    0.05670    0.42720    1.000
    O22      O        0.03380    0.98100    0.27420    1.000
    O23      O        0.45820    0.86870    0.09190    1.000
    O24      O        0.64730    0.80680    0.05890    1.000
