# CIF file generated by openbabel 3.1.0, see https://openbabel.org
data_I
_chemical_name_common 'AFEJOK_ion_b'
_cell_length_a 13.4779
_cell_length_b 13.4779
_cell_length_c 11.1085
_cell_angle_alpha 93.0476
_cell_angle_beta 93.0476
_cell_angle_gamma 69.2325
_space_group_name_H-M_alt 'P 1'
_space_group_name_Hall 'P 1'
loop_
    _symmetry_equiv_pos_as_xyz
    x,y,z
loop_
    _atom_site_label
    _atom_site_type_symbol
    _atom_site_fract_x
    _atom_site_fract_y
    _atom_site_fract_z
    _atom_site_occupancy
    F1       F        0.73100    0.52440    0.66290    1.000
    N2       N        0.27080    0.72540    0.81740    1.000
    N3       N        0.36090    0.82130    0.00670    1.000
    C4       C        0.31150    0.63690    0.75140    1.000
    C5       C        0.31370    0.63590    0.62530    1.000
    C6       C        0.26790    0.72990    0.56690    1.000
    C7       C        0.22500    0.81960    0.63680    1.000
    C8       C        0.22710    0.81650    0.75980    1.000
    C9       C        0.44780    0.79780    0.94410    1.000
    C10      C        0.50300    0.86740    0.93900    1.000
    C11      C        0.47040    0.96180    0.00100    1.000
    C12      C        0.38210    0.98430    0.06890    1.000
    C13      C        0.32920    0.91400    0.06890    1.000
    H14      H        0.34080    0.57060    0.79230    1.000
    H15      H        0.34760    0.56960    0.57900    1.000
    H16      H        0.19000    0.88700    0.59750    1.000
    H17      H        0.19530    0.88190    0.80760    1.000
    H18      H        0.47200    0.73080    0.89890    1.000
    H19      H        0.56590    0.84730    0.89110    1.000
    H20      H        0.35490    0.05170    0.11460    1.000
    H21      H        0.26670    0.93090    0.11530    1.000
    F22      F        0.47560    0.26900    0.33710    1.000
    N23      N        0.27460    0.72920    0.18260    1.000
    N24      N        0.17870    0.63910    0.99330    1.000
    C25      C        0.36310    0.68850    0.24860    1.000
    C26      C        0.36410    0.68630    0.37470    1.000
    C27      C        0.27010    0.73210    0.43310    1.000
    C28      C        0.18040    0.77500    0.36320    1.000
    C29      C        0.18350    0.77290    0.24020    1.000
    C30      C        0.20220    0.55220    0.05590    1.000
    C31      C        0.13260    0.49700    0.06100    1.000
    C32      C        0.03820    0.52960    0.99900    1.000
    C33      C        0.01570    0.61790    0.93110    1.000
    C34      C        0.08600    0.67080    0.93110    1.000
    H35      H        0.42940    0.65920    0.20770    1.000
    H36      H        0.43040    0.65240    0.42100    1.000
    H37      H        0.11300    0.81000    0.40250    1.000
    H38      H        0.11810    0.80470    0.19240    1.000
    H39      H        0.26920    0.52800    0.10110    1.000
    H40      H        0.15270    0.43410    0.10890    1.000
    H41      H        0.94830    0.64510    0.88540    1.000
    H42      H        0.06910    0.73330    0.88470    1.000
    F43      F        0.26900    0.47560    0.33710    1.000
    N44      N        0.72920    0.27460    0.18260    1.000
    N45      N        0.63910    0.17870    0.99330    1.000
    C46      C        0.68850    0.36310    0.24860    1.000
    C47      C        0.68630    0.36410    0.37470    1.000
    C48      C        0.73210    0.27010    0.43310    1.000
    C49      C        0.77500    0.18040    0.36320    1.000
    C50      C        0.77290    0.18350    0.24020    1.000
    C51      C        0.55220    0.20220    0.05590    1.000
    C52      C        0.49700    0.13260    0.06100    1.000
    C53      C        0.52960    0.03820    0.99900    1.000
    C54      C        0.61790    0.01570    0.93110    1.000
    C55      C        0.67080    0.08600    0.93110    1.000
    H56      H        0.65920    0.42940    0.20770    1.000
    H57      H        0.65240    0.43040    0.42100    1.000
    H58      H        0.81000    0.11300    0.40250    1.000
    H59      H        0.80470    0.11810    0.19240    1.000
    H60      H        0.52800    0.26920    0.10110    1.000
    H61      H        0.43410    0.15270    0.10890    1.000
    H62      H        0.64510    0.94830    0.88540    1.000
    H63      H        0.73330    0.06910    0.88470    1.000
    F64      F        0.52440    0.73100    0.66290    1.000
    N65      N        0.72540    0.27080    0.81740    1.000
    N66      N        0.82130    0.36090    0.00670    1.000
    C67      C        0.63690    0.31150    0.75140    1.000
    C68      C        0.63590    0.31370    0.62530    1.000
    C69      C        0.72990    0.26790    0.56690    1.000
    C70      C        0.81960    0.22500    0.63680    1.000
    C71      C        0.81650    0.22710    0.75980    1.000
    C72      C        0.79780    0.44780    0.94410    1.000
    C73      C        0.86740    0.50300    0.93900    1.000
    C74      C        0.96180    0.47040    0.00100    1.000
    C75      C        0.98430    0.38210    0.06890    1.000
    C76      C        0.91400    0.32920    0.06890    1.000
    H77      H        0.57060    0.34080    0.79230    1.000
    H78      H        0.56960    0.34760    0.57900    1.000
    H79      H        0.88700    0.19000    0.59750    1.000
    H80      H        0.88190    0.19530    0.80760    1.000
    H81      H        0.73080    0.47200    0.89890    1.000
    H82      H        0.84730    0.56590    0.89110    1.000
    H83      H        0.05170    0.35490    0.11460    1.000
    H84      H        0.93090    0.26670    0.11530    1.000
    Cu85     Cu       0.27775    0.72225    0.00000    1.000
    F86      F        0.10270    0.89730    0.00000    1.000
    O87      O        0.42840    0.57160    0.00000    1.000
    Cu88     Cu       0.72225    0.27775    0.00000    1.000
    F89      F        0.89730    0.10270    0.00000    1.000
    O90      O        0.57160    0.42840    0.00000    1.000
    P91      P        0.00000    0.00000    0.00000    1.000
    P92      P        0.63160    0.63160    0.66000    1.000
    F93      F        0.58210    0.58210    0.75750    1.000
    F94      F        0.58390    0.58390    0.55610    1.000
    F95      F        0.68200    0.68200    0.57090    1.000
    F96      F        0.67590    0.67590    0.77290    1.000
    P100     P        0.36840    0.36840    0.34000    1.000
    F101     F        0.41790    0.41790    0.24250    1.000
    F102     F        0.41610    0.41610    0.44390    1.000
    F103     F        0.31800    0.31800    0.42910    1.000
    F104     F        0.32410    0.32410    0.22710    1.000
    O105     O        0.43410    0.43410    0.92750    1.000
    N107     N        0.48620    0.48620    0.98100    1.000
    F108     F        0.97290    0.97290    0.11750    1.000
    F109     F        0.06310    0.06310    0.05700    1.000
    F110     F        0.02710    0.02710    0.88250    1.000
    F111     F        0.93690    0.93690    0.94300    1.000
