# CIF file generated by openbabel 3.1.0, see https://openbabel.org
data_I
_chemical_name_common 'image0'
_cell_length_a 10.0524
_cell_length_b 12.5076
_cell_length_c 19.2083
_cell_angle_alpha 90.337
_cell_angle_beta 103.343
_cell_angle_gamma 99.926
_space_group_name_H-M_alt 'P 1'
_space_group_name_Hall 'P 1'
loop_
    _symmetry_equiv_pos_as_xyz
    x,y,z
loop_
    _atom_site_label
    _atom_site_type_symbol
    _atom_site_fract_x
    _atom_site_fract_y
    _atom_site_fract_z
    _atom_site_occupancy
    Ni1      Ni       0.26404    0.22151    0.32137    1.000
    Ni2      Ni       0.34251    0.30888    0.14792    1.000
    N1       N        0.26700    0.77550    0.31410    1.000
    O1       O        0.10220    0.10079    0.26317    1.000
    O2       O        0.22780    0.21211    0.20715    1.000
    O3       O        0.76420    0.76929    0.94883    1.000
    O4       O        0.46030    0.39004    0.24404    1.000
    O5       O        0.42200    0.34922    0.35214    1.000
    O6       O        0.78310    0.84070    0.58724    1.000
    O7       O        0.83580    0.86597    0.48204    1.000
    N2       N        0.11960    0.32790    0.31703    1.000
    N3       N        0.23910    0.66110    0.31230    1.000
    C1       C        0.13110    0.12940    0.20564    1.000
    N4       N        0.48030    0.19890    0.15378    1.000
    N5       N        0.19640    0.41380    0.13514    1.000
    C2       C        0.67310    0.65940    0.43147    1.000
    H1       H        0.72190    0.69800    0.40120    1.000
    C3       C        0.58640    0.55530    0.40465    1.000
    H2       H        0.54000    0.51570    0.43550    1.000
    C4       C        0.98840    0.28910    0.31790    1.000
    H3       H        0.96100    0.21450    0.31990    1.000
    C5       C        0.89190    0.35510    0.31590    1.000
    H4       H        0.80090    0.32520    0.31650    1.000
    C6       C        0.93010    0.46560    0.31300    1.000
    H5       H        0.86570    0.51120    0.31170    1.000
    C7       C        0.06490    0.50730    0.31210    1.000
    C8       C        0.15570    0.43520    0.31400    1.000
    H6       H        0.24710    0.46320    0.31310    1.000
    C9       C        0.11570    0.62510    0.31230    1.000
    H7       H        0.05470    0.67310    0.31240    1.000
    C10      C        0.75380    0.74120    0.00865    1.000
    C11      C        0.47710    0.40900    0.30939    1.000
    C12      C        0.56940    0.51330    0.33923    1.000
    H8       H        0.61910    0.55200    0.30940    1.000
    C13      C        0.23560    0.52120    0.13940    1.000
    H9       H        0.32990    0.55030    0.15280    1.000
    C14      C        0.14050    0.59180    0.12450    1.000
    C15      C        0.00200    0.54880    0.10670    1.000
    H10      H        0.93630    0.59410    0.09790    1.000
    C16      C        0.96060    0.43740    0.10180    1.000
    H11      H        0.86690    0.40630    0.08930    1.000
    C17      C        0.06110    0.37340    0.11580    1.000
    H12      H        0.03320    0.29830    0.11150    1.000
    C18      C        0.18950    0.71080    0.12810    1.000
    H13      H        0.12750    0.75750    0.12980    1.000
    N6       N        0.31220    0.74890    0.12880    1.000
    N7       N        0.33850    0.86330    0.13250    1.000
    C19      C        0.46440    0.89950    0.13530    1.000
    H14      H        0.52410    0.85110    0.13290    1.000
    C20      C        0.51940    0.01720    0.14240    1.000
    C21      C        0.66000    0.05510    0.15070    1.000
    H15      H        0.72060    0.00690    0.15000    1.000
    C22      C        0.70840    0.16420    0.16000    1.000
    H16      H        0.80250    0.19120    0.16530    1.000
    C23      C        0.61720    0.23450    0.16160    1.000
    H17      H        0.65150    0.30870    0.16820    1.000
    C24      C        0.43420    0.09280    0.14370    1.000
    H18      H        0.33930    0.06780    0.13720    1.000
    C25      C        0.05940    0.06990    0.13698    1.000
    H19      H        0.07070    0.09990    0.09410    1.000
    C26      C        0.97970    0.97460    0.13617    1.000
    H20      H        0.96920    0.94770    0.18000    1.000
    C27      C        0.90610    0.90790    0.07143    1.000
    H21      H        0.91370    0.93470    0.02720    1.000
    C28      C        0.83030    0.81250    0.07287    1.000
    H22      H        0.82350    0.78690    0.11750    1.000
    O8       O        0.68930    0.65160    0.02103    1.000
    N8       N        0.40410    0.11220    0.32520    1.000
    C29      C        0.53950    0.14690    0.32889    1.000
    H23      H        0.57220    0.22130    0.33050    1.000
    C30      C        0.63190    0.07770    0.33040    1.000
    H24      H        0.72510    0.10530    0.33320    1.000
    C31      C        0.58590    0.96760    0.32780    1.000
    H25      H        0.64760    0.91960    0.32940    1.000
    C32      C        0.44680    0.92930    0.32260    1.000
    C33      C        0.35880    0.00440    0.32235    1.000
    H26      H        0.26530    0.97890    0.32010    1.000
    C34      C        0.39270    0.81210    0.31760    1.000
    H27      H        0.45320    0.76380    0.31700    1.000
    C35      C        0.77510    0.80990    0.52317    1.000
    C36      C        0.68690    0.70270    0.49676    1.000
    H28      H        0.63900    0.66400    0.52740    1.000
    N9       N        0.14040    0.89060    0.49409    1.000
    C37      C        0.10090    0.78340    0.49590    1.000
    H29      H        0.00910    0.75690    0.49700    1.000
    C38      C        0.18870    0.70940    0.49620    1.000
    C39      C        0.32400    0.74780    0.49410    1.000
    H30      H        0.38580    0.70030    0.49450    1.000
    C40      C        0.36650    0.85820    0.49130    1.000
    H31      H        0.45740    0.88650    0.48940    1.000
    C41      C        0.27250    0.92570    0.49120    1.000
    H32      H        0.30220    0.99990    0.48900    1.000
    C42      C        0.13760    0.59290    0.49680    1.000
    H33      H        0.19710    0.54420    0.49490    1.000
    N10      N        0.01400    0.55750    0.49970    1.000
    Ni3      Ni       0.73596    0.77849    0.67863    1.000
    Ni4      Ni       0.65749    0.69112    0.85208    1.000
    N11      N        0.73300    0.22450    0.68590    1.000
    O9       O        0.89780    0.89921    0.73683    1.000
    O10      O        0.77220    0.78789    0.79285    1.000
    O11      O        0.23580    0.23071    0.05117    1.000
    O12      O        0.53970    0.60996    0.75596    1.000
    O13      O        0.57800    0.65078    0.64786    1.000
    O14      O        0.21690    0.15930    0.41276    1.000
    O15      O        0.16420    0.13403    0.51796    1.000
    N12      N        0.88040    0.67210    0.68297    1.000
    N13      N        0.76090    0.33890    0.68770    1.000
    C43      C        0.86890    0.87060    0.79436    1.000
    N14      N        0.51970    0.80110    0.84622    1.000
    N15      N        0.80360    0.58620    0.86486    1.000
    C44      C        0.32690    0.34060    0.56853    1.000
    H34      H        0.27810    0.30200    0.59880    1.000
    C45      C        0.41360    0.44470    0.59535    1.000
    H35      H        0.46000    0.48430    0.56450    1.000
    C46      C        0.01160    0.71090    0.68210    1.000
    H36      H        0.03900    0.78550    0.68010    1.000
    C47      C        0.10810    0.64490    0.68410    1.000
    H37      H        0.19910    0.67480    0.68350    1.000
    C48      C        0.06990    0.53440    0.68700    1.000
    H38      H        0.13430    0.48880    0.68830    1.000
    C49      C        0.93510    0.49270    0.68790    1.000
    C50      C        0.84430    0.56480    0.68600    1.000
    H39      H        0.75290    0.53680    0.68690    1.000
    C51      C        0.88430    0.37490    0.68770    1.000
    H40      H        0.94530    0.32690    0.68760    1.000
    C52      C        0.24620    0.25880    0.99135    1.000
    C53      C        0.52290    0.59100    0.69061    1.000
    C54      C        0.43060    0.48670    0.66077    1.000
    H41      H        0.38090    0.44800    0.69060    1.000
    C55      C        0.76440    0.47880    0.86060    1.000
    H42      H        0.67010    0.44970    0.84720    1.000
    C56      C        0.85950    0.40820    0.87550    1.000
    C57      C        0.99800    0.45120    0.89330    1.000
    H43      H        0.06370    0.40590    0.90210    1.000
    C58      C        0.03940    0.56260    0.89820    1.000
    H44      H        0.13310    0.59370    0.91070    1.000
    C59      C        0.93890    0.62660    0.88420    1.000
    H45      H        0.96680    0.70170    0.88850    1.000
    C60      C        0.81050    0.28920    0.87190    1.000
    H46      H        0.87250    0.24250    0.87020    1.000
    N16      N        0.68780    0.25110    0.87120    1.000
    N17      N        0.66150    0.13670    0.86750    1.000
    C61      C        0.53560    0.10050    0.86470    1.000
    H47      H        0.47590    0.14890    0.86710    1.000
    C62      C        0.48060    0.98280    0.85760    1.000
    C63      C        0.34000    0.94490    0.84930    1.000
    H48      H        0.27940    0.99310    0.85000    1.000
    C64      C        0.29160    0.83580    0.84000    1.000
    H49      H        0.19750    0.80880    0.83470    1.000
    C65      C        0.38280    0.76550    0.83840    1.000
    H50      H        0.34850    0.69130    0.83180    1.000
    C66      C        0.56580    0.90720    0.85630    1.000
    H51      H        0.66070    0.93220    0.86280    1.000
    C67      C        0.94060    0.93010    0.86302    1.000
    H52      H        0.92930    0.90010    0.90590    1.000
    C68      C        0.02030    0.02540    0.86383    1.000
    H53      H        0.03080    0.05230    0.82000    1.000
    C69      C        0.09390    0.09210    0.92857    1.000
    H54      H        0.08630    0.06530    0.97280    1.000
    C70      C        0.16970    0.18750    0.92713    1.000
    H55      H        0.17650    0.21310    0.88250    1.000
    O16      O        0.31070    0.34840    0.97897    1.000
    N18      N        0.59590    0.88780    0.67480    1.000
    C71      C        0.46050    0.85310    0.67111    1.000
    H56      H        0.42780    0.77870    0.66950    1.000
    C72      C        0.36810    0.92230    0.66960    1.000
    H57      H        0.27490    0.89470    0.66680    1.000
    C73      C        0.41410    0.03240    0.67220    1.000
    H58      H        0.35240    0.08040    0.67060    1.000
    C74      C        0.55320    0.07070    0.67740    1.000
    C75      C        0.64120    0.99560    0.67765    1.000
    H59      H        0.73470    0.02110    0.67990    1.000
    C76      C        0.60730    0.18790    0.68240    1.000
    H60      H        0.54680    0.23620    0.68300    1.000
    C77      C        0.22490    0.19010    0.47683    1.000
    C78      C        0.31310    0.29730    0.50324    1.000
    H61      H        0.36100    0.33600    0.47260    1.000
    N19      N        0.85960    0.10940    0.50591    1.000
    C79      C        0.89910    0.21660    0.50410    1.000
    H62      H        0.99090    0.24310    0.50300    1.000
    C80      C        0.81130    0.29060    0.50380    1.000
    C81      C        0.67600    0.25220    0.50590    1.000
    H63      H        0.61420    0.29970    0.50550    1.000
    C82      C        0.63350    0.14180    0.50870    1.000
    H64      H        0.54260    0.11350    0.51060    1.000
    C83      C        0.72750    0.07430    0.50880    1.000
    H65      H        0.69780    0.00010    0.51100    1.000
    C84      C        0.86240    0.40710    0.50320    1.000
    H66      H        0.80290    0.45580    0.50510    1.000
    N20      N        0.98600    0.44250    0.50030    1.000
    Ni5      Ni       0.00000    0.00000    0.50000    1.000
