# CIF file generated by openbabel 3.1.0, see https://openbabel.org
data_I
_chemical_name_common 'ICIZOL_clean'
_cell_length_a 9.316
_cell_length_b 11.917
_cell_length_c 25.515
_cell_angle_alpha 90
_cell_angle_beta 94.663
_cell_angle_gamma 90
_space_group_name_H-M_alt 'P 1'
_space_group_name_Hall 'P 1'
loop_
    _symmetry_equiv_pos_as_xyz
    x,y,z
loop_
    _atom_site_label
    _atom_site_type_symbol
    _atom_site_fract_x
    _atom_site_fract_y
    _atom_site_fract_z
    _atom_site_occupancy
    Mn1      Mn       0.55567    0.91943    0.97874    1.000
    Mn2      Mn       0.07356    0.60055    0.29405    1.000
    Mn3      Mn       0.55567    0.08057    0.47874    1.000
    Mn4      Mn       0.07356    0.39945    0.79405    1.000
    H1       H        0.38110    0.31220    0.00790    1.000
    H2       H        0.52240    0.45270    0.05050    1.000
    H3       H        0.76040    0.48130    0.02620    1.000
    H4       H        0.70630    0.23670    0.91660    1.000
    H5       H        0.91440    0.25420    0.04770    1.000
    H6       H        0.94570    0.23560    0.13910    1.000
    H7       H        0.05850    0.37020    0.19130    1.000
    H8       H        0.15540    0.54020    0.05970    1.000
    H9       H        0.36810    0.56200    0.95700    1.000
    H10      H        0.57700    0.62070    0.91800    1.000
    H11      H        0.57950    0.59300    0.82310    1.000
    H12      H        0.39180    0.50330    0.77800    1.000
    H13      H        0.87930    0.97480    0.50830    1.000
    H14      H        0.08260    0.92140    0.46880    1.000
    H15      H        0.08270    0.92520    0.37690    1.000
    H16      H        0.88230    0.00610    0.32680    1.000
    H17      H        0.23940    0.00420    0.24070    1.000
    H18      H        0.00180    0.02180    0.20400    1.000
    H19      H        0.85640    0.16330    0.23020    1.000
    H20      H        0.17030    0.27660    0.33330    1.000
    H21      H        0.63260    0.99560    0.21450    1.000
    H22      H        0.51890    0.17790    0.08190    1.000
    H23      H        0.39930    0.30560    0.13330    1.000
    H24      H        0.37700    0.27760    0.22200    1.000
    H25      H        0.38110    0.68780    0.50790    1.000
    H26      H        0.52240    0.54730    0.55050    1.000
    H27      H        0.76040    0.51870    0.52620    1.000
    H28      H        0.70630    0.76330    0.41660    1.000
    H29      H        0.91440    0.74580    0.54770    1.000
    H30      H        0.94570    0.76440    0.63910    1.000
    H31      H        0.05850    0.62980    0.69130    1.000
    H32      H        0.15540    0.45980    0.55970    1.000
    H33      H        0.36810    0.43800    0.45700    1.000
    H34      H        0.57700    0.37930    0.41800    1.000
    H35      H        0.57950    0.40700    0.32310    1.000
    H36      H        0.39180    0.49670    0.27800    1.000
    H37      H        0.87930    0.02520    0.00830    1.000
    H38      H        0.08260    0.07860    0.96880    1.000
    H39      H        0.08270    0.07480    0.87690    1.000
    H40      H        0.88230    0.99390    0.82680    1.000
    H41      H        0.23940    0.99580    0.74070    1.000
    H42      H        0.00180    0.97820    0.70400    1.000
    H43      H        0.85640    0.83670    0.73020    1.000
    H44      H        0.17030    0.72340    0.83330    1.000
    H45      H        0.63260    0.00440    0.71450    1.000
    H46      H        0.51890    0.82210    0.58190    1.000
    H47      H        0.39930    0.69440    0.63330    1.000
    H48      H        0.37700    0.72240    0.72200    1.000
    C1       C        0.52520    0.26590    0.95600    1.000
    C2       C        0.47470    0.32700    0.99740    1.000
    C3       C        0.55880    0.40920    0.02340    1.000
    C4       C        0.70100    0.42650    0.00830    1.000
    C5       C        0.75410    0.36600    0.96850    1.000
    C6       C        0.66830    0.28210    0.94270    1.000
    C7       C        0.89770    0.38430    0.95190    1.000
    C8       C        0.02190    0.41320    0.98650    1.000
    C9       C        0.03030    0.40040    0.04410    1.000
    C10      C        0.96750    0.30890    0.06820    1.000
    C11      C        0.98440    0.29960    0.12310    1.000
    C12      C        0.05330    0.37740    0.15410    1.000
    C13      C        0.11850    0.47100    0.13020    1.000
    C14      C        0.10880    0.47990    0.07570    1.000
    C15      C        0.13990    0.45280    0.91350    1.000
    C16      C        0.26790    0.49720    0.88920    1.000
    C17      C        0.37720    0.55050    0.92060    1.000
    C18      C        0.49870    0.58620    0.89790    1.000
    C19      C        0.50020    0.56780    0.84120    1.000
    C20      C        0.38800    0.51490    0.81470    1.000
    C21      C        0.87920    0.98040    0.47120    1.000
    C22      C        0.00040    0.94740    0.44790    1.000
    C23      C        0.00210    0.95250    0.39360    1.000
    C24      C        0.88320    0.99840    0.36380    1.000
    C25      C        0.76710    0.03200    0.39080    1.000
    C26      C        0.63620    0.07700    0.36180    1.000
    C27      C        0.50670    0.11370    0.28470    1.000
    C28      C        0.38240    0.13120    0.31360    1.000
    C29      C        0.23700    0.14390    0.29040    1.000
    C30      C        0.18040    0.06350    0.25150    1.000
    C31      C        0.03860    0.07380    0.22990    1.000
    C32      C        0.95240    0.15740    0.24560    1.000
    C33      C        0.00070    0.23230    0.28270    1.000
    C34      C        0.13980    0.22540    0.30620    1.000
    C35      C        0.50420    0.13010    0.22660    1.000
    C36      C        0.58220    0.05700    0.19790    1.000
    C37      C        0.58510    0.07630    0.14300    1.000
    C38      C        0.51670    0.16630    0.11870    1.000
    C39      C        0.44290    0.24130    0.14980    1.000
    C40      C        0.43060    0.22710    0.20230    1.000
    C41      C        0.52520    0.73410    0.45600    1.000
    C42      C        0.47470    0.67300    0.49740    1.000
    C43      C        0.55880    0.59080    0.52340    1.000
    C44      C        0.70100    0.57350    0.50830    1.000
    C45      C        0.75410    0.63400    0.46850    1.000
    C46      C        0.66830    0.71790    0.44270    1.000
    C47      C        0.89770    0.61570    0.45190    1.000
    C48      C        0.02190    0.58680    0.48650    1.000
    C49      C        0.03030    0.59960    0.54410    1.000
    C50      C        0.96750    0.69110    0.56820    1.000
    C51      C        0.98440    0.70040    0.62310    1.000
    C52      C        0.05330    0.62260    0.65410    1.000
    C53      C        0.11850    0.52900    0.63020    1.000
    C54      C        0.10880    0.52010    0.57570    1.000
    C55      C        0.13990    0.54720    0.41350    1.000
    C56      C        0.26790    0.50280    0.38920    1.000
    C57      C        0.37720    0.44950    0.42060    1.000
    C58      C        0.49870    0.41380    0.39790    1.000
    C59      C        0.50020    0.43220    0.34120    1.000
    C60      C        0.38800    0.48510    0.31470    1.000
    C61      C        0.87920    0.01960    0.97120    1.000
    C62      C        0.00040    0.05260    0.94790    1.000
    C63      C        0.00210    0.04750    0.89360    1.000
    C64      C        0.88320    0.00160    0.86380    1.000
    C65      C        0.76710    0.96800    0.89080    1.000
    C66      C        0.63620    0.92300    0.86180    1.000
    C67      C        0.50670    0.88630    0.78470    1.000
    C68      C        0.38240    0.86880    0.81360    1.000
    C69      C        0.23700    0.85610    0.79040    1.000
    C70      C        0.18040    0.93650    0.75150    1.000
    C71      C        0.03860    0.92620    0.72990    1.000
    C72      C        0.95240    0.84260    0.74560    1.000
    C73      C        0.00070    0.76770    0.78270    1.000
    C74      C        0.13980    0.77460    0.80620    1.000
    C75      C        0.50420    0.86990    0.72660    1.000
    C76      C        0.58220    0.94300    0.69790    1.000
    C77      C        0.58510    0.92370    0.64300    1.000
    C78      C        0.51670    0.83370    0.61870    1.000
    C79      C        0.44290    0.75870    0.64980    1.000
    C80      C        0.43060    0.77290    0.70230    1.000
    S1       S        0.41740    0.16210    0.92317    1.000
    S2       S        0.22060    0.56710    0.16948    1.000
    S3       S        0.68730    0.98380    0.10583    1.000
    S4       S        0.88980    0.34410    0.30183    1.000
    S5       S        0.41740    0.83790    0.42317    1.000
    S6       S        0.22060    0.43290    0.66948    1.000
    S7       S        0.68730    0.01620    0.60583    1.000
    S8       S        0.88980    0.65590    0.80183    1.000
    N1       N        0.91240    0.37400    0.90060    1.000
    N2       N        0.03810    0.40190    0.88120    1.000
    N3       N        0.14000    0.45380    0.96650    1.000
    N4       N        0.27230    0.47790    0.83710    1.000
    N5       N        0.53070    0.11470    0.39110    1.000
    N6       N        0.39980    0.13950    0.36510    1.000
    N7       N        0.62880    0.08350    0.30910    1.000
    N8       N        0.75870    0.02070    0.44330    1.000
    N9       N        0.91240    0.62600    0.40060    1.000
    N10      N        0.03810    0.59810    0.38120    1.000
    N11      N        0.14000    0.54620    0.46650    1.000
    N12      N        0.27230    0.52210    0.33710    1.000
    N13      N        0.53070    0.88530    0.89110    1.000
    N14      N        0.39980    0.86050    0.86510    1.000
    N15      N        0.62880    0.91650    0.80910    1.000
    N16      N        0.75870    0.97930    0.94330    1.000
    O1       O        0.41960    0.06700    0.95970    1.000
    O2       O        0.27140    0.21160    0.91420    1.000
    O3       O        0.48130    0.13530    0.87480    1.000
    O4       O        0.16170    0.56910    0.21950    1.000
    O5       O        0.20230    0.67170    0.14270    1.000
    O6       O        0.36680    0.52380    0.17440    1.000
    O7       O        0.88520    0.33660    0.35520    1.000
    O8       O        0.75260    0.33090    0.27150    1.000
    O9       O        0.96020    0.44400    0.28690    1.000
    O10      O        0.68380    0.87600    0.12790    1.000
    O11      O        0.61780    0.99090    0.05230    1.000
    O12      O        0.83530    0.02430    0.10980    1.000
    O13      O        0.41960    0.93300    0.45970    1.000
    O14      O        0.27140    0.78840    0.41420    1.000
    O15      O        0.48130    0.86470    0.37480    1.000
    O16      O        0.16170    0.43090    0.71950    1.000
    O17      O        0.20230    0.32830    0.64270    1.000
    O18      O        0.36680    0.47620    0.67440    1.000
    O19      O        0.88520    0.66340    0.85520    1.000
    O20      O        0.75260    0.66910    0.77150    1.000
    O21      O        0.96020    0.55600    0.78690    1.000
    O22      O        0.68380    0.12400    0.62790    1.000
    O23      O        0.61780    0.00910    0.55230    1.000
    O24      O        0.83530    0.97570    0.60980    1.000
