# CIF file generated by openbabel 3.1.0, see https://openbabel.org
data_I
_chemical_name_common 'image0'
_cell_length_a 8.443
_cell_length_b 13.779
_cell_length_c 10.17
_cell_angle_alpha 90
_cell_angle_beta 91.91
_cell_angle_gamma 90
_space_group_name_H-M_alt 'P 1'
_space_group_name_Hall 'P 1'
loop_
    _symmetry_equiv_pos_as_xyz
    x,y,z
loop_
    _atom_site_label
    _atom_site_type_symbol
    _atom_site_fract_x
    _atom_site_fract_y
    _atom_site_fract_z
    _atom_site_occupancy
    Zn1      Zn       0.12110    0.92642    0.03960    1.000
    Zn2      Zn       0.62280    0.36910    0.65040    1.000
    P1       P        0.81060    0.80620    0.02850    1.000
    P2       P        0.15030    0.11330    0.22580    1.000
    P3       P        0.31090    0.72680    0.05910    1.000
    P4       P        0.65390    0.53700    0.85990    1.000
    O1       O        0.90410    0.89430    0.07450    1.000
    O2       O        0.75460    0.74650    0.14250    1.000
    O3       O        0.66180    0.84760    0.94980    1.000
    O4       O        0.90610    0.74600    0.93060    1.000
    O5       O        0.15680    0.94160    0.85300    1.000
    O6       O        0.99010    0.17000    0.21240    1.000
    O7       O        0.16730    0.05570    0.10290    1.000
    O8       O        0.28360    0.19100    0.22090    1.000
    O9       O        0.25780    0.82470    0.10740    1.000
    O10      O        0.40570    0.67220    0.16310    1.000
    O11      O        0.16240    0.66120    0.02830    1.000
    O12      O        0.40540    0.73560    0.93130    1.000
    O13      O        0.66370    0.54440    0.00610    1.000
    O14      O        0.49060    0.57450    0.80500    1.000
    O15      O        0.78500    0.60220    0.79690    1.000
    O16      O        0.67510    0.43540    0.81170    1.000
    Zn3      Zn       0.12110    0.07358    0.53960    1.000
    Zn4      Zn       0.62280    0.63090    0.15040    1.000
    P5       P        0.81060    0.19380    0.52850    1.000
    P6       P        0.15030    0.88670    0.72580    1.000
    P7       P        0.31090    0.27320    0.55910    1.000
    P8       P        0.65390    0.46300    0.35990    1.000
    O17      O        0.90410    0.10570    0.57450    1.000
    O18      O        0.75460    0.25350    0.64250    1.000
    O19      O        0.66180    0.15240    0.44980    1.000
    O20      O        0.90610    0.25400    0.43060    1.000
    O21      O        0.15680    0.05840    0.35300    1.000
    O22      O        0.99010    0.83000    0.71240    1.000
    O23      O        0.16730    0.94430    0.60290    1.000
    O24      O        0.28360    0.80900    0.72090    1.000
    O25      O        0.25780    0.17530    0.60740    1.000
    O26      O        0.40570    0.32780    0.66310    1.000
    O27      O        0.16240    0.33880    0.52830    1.000
    O28      O        0.40540    0.26440    0.43130    1.000
    O29      O        0.66370    0.45560    0.50610    1.000
    O30      O        0.49060    0.42550    0.30500    1.000
    O31      O        0.78500    0.39780    0.29690    1.000
    O32      O        0.67510    0.56460    0.31170    1.000
