# CIF file generated by openbabel 3.1.0, see https://openbabel.org
data_I
_chemical_name_common 'image0'
_cell_length_a 12.093
_cell_length_b 14.897
_cell_length_c 11.849
_cell_angle_alpha 90
_cell_angle_beta 97.821
_cell_angle_gamma 90
_space_group_name_H-M_alt 'P 1'
_space_group_name_Hall 'P 1'
loop_
    _symmetry_equiv_pos_as_xyz
    x,y,z
loop_
    _atom_site_label
    _atom_site_type_symbol
    _atom_site_fract_x
    _atom_site_fract_y
    _atom_site_fract_z
    _atom_site_occupancy
    Zn1      Zn       0.90416    0.23676    0.08895    1.000
    Zn2      Zn       0.79552    0.11355    0.54378    1.000
    P1       P        0.83020    0.23830    0.34462    1.000
    P2       P        0.74770    0.41102    0.03719    1.000
    O1       O        0.83950    0.34540    0.01960    1.000
    O2       O        0.84790    0.20223    0.22680    1.000
    O3       O        0.94070    0.25110    0.42210    1.000
    O4       O        0.86610    0.13360    0.98730    1.000
    O5       O        0.75700    0.16948    0.39770    1.000
    O6       O        0.76470    0.32822    0.32980    1.000
    O7       O        0.76160    0.49210    0.96300    1.000
    O8       O        0.76070    0.44540    0.16410    1.000
    H1       H        0.76200    0.40500    0.21300    1.000
    Zn3      Zn       0.40416    0.73676    0.08895    1.000
    Zn4      Zn       0.29552    0.61355    0.54378    1.000
    P3       P        0.33020    0.73830    0.34462    1.000
    P4       P        0.24770    0.91102    0.03719    1.000
    O9       O        0.33950    0.84540    0.01960    1.000
    O10      O        0.34790    0.70223    0.22680    1.000
    O11      O        0.44070    0.75110    0.42210    1.000
    O12      O        0.36610    0.63360    0.98730    1.000
    O13      O        0.25700    0.66948    0.39770    1.000
    O14      O        0.26470    0.82822    0.32980    1.000
    O15      O        0.26160    0.99210    0.96300    1.000
    O16      O        0.26070    0.94540    0.16410    1.000
    H2       H        0.26200    0.90500    0.21300    1.000
    Zn5      Zn       0.09584    0.23676    0.41105    1.000
    Zn6      Zn       0.20448    0.11355    0.95622    1.000
    P5       P        0.16980    0.23830    0.15538    1.000
    P6       P        0.25230    0.41102    0.46281    1.000
    O17      O        0.16050    0.34540    0.48040    1.000
    O18      O        0.15210    0.20223    0.27320    1.000
    O19      O        0.05930    0.25110    0.07790    1.000
    O20      O        0.13390    0.13360    0.51270    1.000
    O21      O        0.24300    0.16948    0.10230    1.000
    O22      O        0.23530    0.32822    0.17020    1.000
    O23      O        0.23840    0.49210    0.53700    1.000
    O24      O        0.23930    0.44540    0.33590    1.000
    H3       H        0.23800    0.40500    0.28700    1.000
    Zn7      Zn       0.59584    0.73676    0.41105    1.000
    Zn8      Zn       0.70448    0.61355    0.95622    1.000
    P7       P        0.66980    0.73830    0.15538    1.000
    P8       P        0.75230    0.91102    0.46281    1.000
    O25      O        0.66050    0.84540    0.48040    1.000
    O26      O        0.65210    0.70223    0.27320    1.000
    O27      O        0.55930    0.75110    0.07790    1.000
    O28      O        0.63390    0.63360    0.51270    1.000
    O29      O        0.74300    0.66948    0.10230    1.000
    O30      O        0.73530    0.82822    0.17020    1.000
    O31      O        0.73840    0.99210    0.53700    1.000
    O32      O        0.73930    0.94540    0.33590    1.000
    H4       H        0.73800    0.90500    0.28700    1.000
    Zn9      Zn       0.09584    0.76324    0.91105    1.000
    Zn10     Zn       0.20448    0.88645    0.45622    1.000
    P9       P        0.16980    0.76170    0.65538    1.000
    P10      P        0.25230    0.58898    0.96281    1.000
    O33      O        0.16050    0.65460    0.98040    1.000
    O34      O        0.15210    0.79777    0.77320    1.000
    O35      O        0.05930    0.74890    0.57790    1.000
    O36      O        0.13390    0.86640    0.01270    1.000
    O37      O        0.24300    0.83052    0.60230    1.000
    O38      O        0.23530    0.67178    0.67020    1.000
    O39      O        0.23840    0.50790    0.03700    1.000
    O40      O        0.23930    0.55460    0.83590    1.000
    H5       H        0.23800    0.59500    0.78700    1.000
    Zn11     Zn       0.59584    0.26324    0.91105    1.000
    Zn12     Zn       0.70448    0.38645    0.45622    1.000
    P11      P        0.66980    0.26170    0.65538    1.000
    P12      P        0.75230    0.08898    0.96281    1.000
    O41      O        0.66050    0.15460    0.98040    1.000
    O42      O        0.65210    0.29777    0.77320    1.000
    O43      O        0.55930    0.24890    0.57790    1.000
    O44      O        0.63390    0.36640    0.01270    1.000
    O45      O        0.74300    0.33052    0.60230    1.000
    O46      O        0.73530    0.17178    0.67020    1.000
    O47      O        0.73840    0.00790    0.03700    1.000
    O48      O        0.73930    0.05460    0.83590    1.000
    H6       H        0.73800    0.09500    0.78700    1.000
    Zn13     Zn       0.90416    0.76324    0.58895    1.000
    Zn14     Zn       0.79552    0.88645    0.04378    1.000
    P13      P        0.83020    0.76170    0.84462    1.000
    P14      P        0.74770    0.58898    0.53719    1.000
    O49      O        0.83950    0.65460    0.51960    1.000
    O50      O        0.84790    0.79777    0.72680    1.000
    O51      O        0.94070    0.74890    0.92210    1.000
    O52      O        0.86610    0.86640    0.48730    1.000
    O53      O        0.75700    0.83052    0.89770    1.000
    O54      O        0.76470    0.67178    0.82980    1.000
    O55      O        0.76160    0.50790    0.46300    1.000
    O56      O        0.76070    0.55460    0.66410    1.000
    H7       H        0.76200    0.59500    0.71300    1.000
    Zn15     Zn       0.40416    0.26324    0.58895    1.000
    Zn16     Zn       0.29552    0.38645    0.04378    1.000
    P15      P        0.33020    0.26170    0.84462    1.000
    P16      P        0.24770    0.08898    0.53719    1.000
    O57      O        0.33950    0.15460    0.51960    1.000
    O58      O        0.34790    0.29777    0.72680    1.000
    O59      O        0.44070    0.24890    0.92210    1.000
    O60      O        0.36610    0.36640    0.48730    1.000
    O61      O        0.25700    0.33052    0.89770    1.000
    O62      O        0.26470    0.17178    0.82980    1.000
    O63      O        0.26160    0.00790    0.46300    1.000
    O64      O        0.26070    0.05460    0.66410    1.000
    H8       H        0.26200    0.09500    0.71300    1.000
