# CIF file generated by openbabel 3.1.0, see https://openbabel.org
data_I
_chemical_name_common 'UGOSOY_charged'
_cell_length_a 13.477
_cell_length_b 13.477
_cell_length_c 24.9732
_cell_angle_alpha 74.3458
_cell_angle_beta 74.3458
_cell_angle_gamma 89.9999
_space_group_name_H-M_alt 'P 1'
_space_group_name_Hall 'P 1'
loop_
    _symmetry_equiv_pos_as_xyz
    x,y,z
loop_
    _atom_site_label
    _atom_site_type_symbol
    _atom_site_fract_x
    _atom_site_fract_y
    _atom_site_fract_z
    _atom_site_occupancy
    Cu1      Cu       0.84952    0.59952    0.80096    1.000
    Cu2      Cu       0.59952    0.84952    0.30096    1.000
    H1       H        0.85160    0.68340    0.89760    1.000
    H2       H        0.74260    0.70000    0.98140    1.000
    H3       H        0.50260    0.63010    0.93040    1.000
    H4       H        0.61680    0.61060    0.84840    1.000
    H5       H        0.67820    0.74730    0.11980    1.000
    H6       H        0.71040    0.79070    0.19680    1.000
    H7       H        0.41450    0.78970    0.26700    1.000
    H8       H        0.37770    0.74920    0.19160    1.000
    H9       H        0.75080    0.41900    0.89760    1.000
    H10      H        0.77600    0.31860    0.98140    1.000
    H11      H        0.06700    0.43950    0.93040    1.000
    H12      H        0.03480    0.54100    0.84840    1.000
    H13      H        0.70200    0.13290    0.11980    1.000
    H14      H        0.59280    0.01250    0.19680    1.000
    H15      H        0.81850    0.94330    0.26700    1.000
    H16      H        0.93070    0.05920    0.19160    1.000
    H17      H        0.68340    0.75080    0.39760    1.000
    H18      H        0.70000    0.77600    0.48140    1.000
    H19      H        0.63010    0.06700    0.43040    1.000
    H20      H        0.61060    0.03480    0.34840    1.000
    H21      H        0.74730    0.70200    0.61980    1.000
    H22      H        0.79070    0.59280    0.69680    1.000
    H23      H        0.78970    0.81850    0.76700    1.000
    H24      H        0.74920    0.93070    0.69160    1.000
    H25      H        0.41900    0.85160    0.39760    1.000
    H26      H        0.31860    0.74260    0.48140    1.000
    H27      H        0.43950    0.50260    0.43040    1.000
    H28      H        0.54100    0.61680    0.34840    1.000
    H29      H        0.13290    0.67820    0.61980    1.000
    H30      H        0.01250    0.71040    0.69680    1.000
    H31      H        0.94330    0.41450    0.76700    1.000
    H32      H        0.05920    0.37770    0.69160    1.000
    C1       C        0.78081    0.67031    0.90458    1.000
    C2       C        0.71547    0.68127    0.95466    1.000
    C3       C        0.61207    0.66537    0.96606    1.000
    C4       C        0.57337    0.63947    0.92486    1.000
    C5       C        0.64270    0.62830    0.87580    1.000
    C6       C        0.54452    0.67552    0.01936    1.000
    C7       C        0.50384    0.70904    0.10032    1.000
    C8       C        0.52542    0.73962    0.14816    1.000
    C9       C        0.62321    0.75531    0.14978    1.000
    C10      C        0.64252    0.78312    0.19556    1.000
    C11      C        0.46889    0.78279    0.23642    1.000
    C12      C        0.44597    0.75617    0.19226    1.000
    C13      C        0.81461    0.42511    0.90458    1.000
    C14      C        0.82987    0.36407    0.95466    1.000
    C15      C        0.92187    0.36857    0.96606    1.000
    C16      C        0.00177    0.43567    0.92486    1.000
    C17      C        0.98150    0.49590    0.87580    1.000
    C18      C        0.93612    0.30512    0.01936    1.000
    C19      C        0.89584    0.19064    0.10032    1.000
    C20      C        0.82642    0.11222    0.14816    1.000
    C21      C        0.72701    0.09491    0.14978    1.000
    C22      C        0.66192    0.02132    0.19556    1.000
    C23      C        0.79469    0.98079    0.23642    1.000
    C24      C        0.86177    0.05157    0.19226    1.000
    C25      C        0.67031    0.81461    0.40458    1.000
    C26      C        0.68127    0.82987    0.45466    1.000
    C27      C        0.66537    0.92187    0.46606    1.000
    C28      C        0.63947    0.00177    0.42486    1.000
    C29      C        0.62830    0.98150    0.37580    1.000
    C30      C        0.67552    0.93612    0.51936    1.000
    C31      C        0.70904    0.89584    0.60032    1.000
    C32      C        0.73962    0.82642    0.64816    1.000
    C33      C        0.75531    0.72701    0.64978    1.000
    C34      C        0.78312    0.66192    0.69556    1.000
    C35      C        0.78279    0.79469    0.73642    1.000
    C36      C        0.75617    0.86177    0.69226    1.000
    C37      C        0.42511    0.78081    0.40458    1.000
    C38      C        0.36407    0.71547    0.45466    1.000
    C39      C        0.36857    0.61207    0.46606    1.000
    C40      C        0.43567    0.57337    0.42486    1.000
    C41      C        0.49590    0.64270    0.37580    1.000
    C42      C        0.30512    0.54452    0.51936    1.000
    C43      C        0.19064    0.50384    0.60032    1.000
    C44      C        0.11222    0.52542    0.64816    1.000
    C45      C        0.09491    0.62321    0.64978    1.000
    C46      C        0.02132    0.64252    0.69556    1.000
    C47      C        0.98079    0.46889    0.73642    1.000
    C48      C        0.05157    0.44597    0.69226    1.000
    N1       N        0.74546    0.64106    0.86508    1.000
    N2       N        0.44645    0.65255    0.04170    1.000
    N3       N        0.42305    0.67595    0.09450    1.000
    N4       N        0.56497    0.79947    0.23846    1.000
    N5       N        0.88946    0.49386    0.86508    1.000
    N6       N        0.01185    0.30575    0.04170    1.000
    N7       N        0.98245    0.22955    0.09450    1.000
    N8       N        0.69657    0.96207    0.23846    1.000
    N9       N        0.64106    0.88946    0.36508    1.000
    N10      N        0.65255    0.01185    0.54170    1.000
    N11      N        0.67595    0.98245    0.59450    1.000
    N12      N        0.79947    0.69657    0.73846    1.000
    N13      N        0.49386    0.74546    0.36508    1.000
    N14      N        0.30575    0.44645    0.54170    1.000
    N15      N        0.22955    0.42305    0.59450    1.000
    N16      N        0.96207    0.56497    0.73846    1.000
    O1       O        0.58716    0.70966    0.05448    1.000
    O2       O        0.85836    0.23586    0.05448    1.000
    O3       O        0.70966    0.85836    0.55448    1.000
    O4       O        0.23586    0.58716    0.55448    1.000
    Cu3      Cu       0.15048    0.40048    0.19904    1.000
    Cu4      Cu       0.40048    0.15048    0.69904    1.000
    H33      H        0.14840    0.31660    0.10240    1.000
    H34      H        0.25740    0.30000    0.01860    1.000
    H35      H        0.49740    0.36990    0.06960    1.000
    H36      H        0.38320    0.38940    0.15160    1.000
    H37      H        0.32180    0.25270    0.88020    1.000
    H38      H        0.28960    0.20930    0.80320    1.000
    H39      H        0.58550    0.21030    0.73300    1.000
    H40      H        0.62230    0.25080    0.80840    1.000
    H41      H        0.24920    0.58100    0.10240    1.000
    H42      H        0.22400    0.68140    0.01860    1.000
    H43      H        0.93300    0.56050    0.06960    1.000
    H44      H        0.96520    0.45900    0.15160    1.000
    H45      H        0.29800    0.86710    0.88020    1.000
    H46      H        0.40720    0.98750    0.80320    1.000
    H47      H        0.18150    0.05670    0.73300    1.000
    H48      H        0.06930    0.94080    0.80840    1.000
    H49      H        0.31660    0.24920    0.60240    1.000
    H50      H        0.30000    0.22400    0.51860    1.000
    H51      H        0.36990    0.93300    0.56960    1.000
    H52      H        0.38940    0.96520    0.65160    1.000
    H53      H        0.25270    0.29800    0.38020    1.000
    H54      H        0.20930    0.40720    0.30320    1.000
    H55      H        0.21030    0.18150    0.23300    1.000
    H56      H        0.25080    0.06930    0.30840    1.000
    H57      H        0.58100    0.14840    0.60240    1.000
    H58      H        0.68140    0.25740    0.51860    1.000
    H59      H        0.56050    0.49740    0.56960    1.000
    H60      H        0.45900    0.38320    0.65160    1.000
    H61      H        0.86710    0.32180    0.38020    1.000
    H62      H        0.98750    0.28960    0.30320    1.000
    H63      H        0.05670    0.58550    0.23300    1.000
    H64      H        0.94080    0.62230    0.30840    1.000
    C49      C        0.21919    0.32969    0.09542    1.000
    C50      C        0.28453    0.31873    0.04534    1.000
    C51      C        0.38793    0.33463    0.03394    1.000
    C52      C        0.42663    0.36053    0.07514    1.000
    C53      C        0.35730    0.37170    0.12420    1.000
    C54      C        0.45548    0.32448    0.98064    1.000
    C55      C        0.49616    0.29096    0.89968    1.000
    C56      C        0.47458    0.26038    0.85184    1.000
    C57      C        0.37679    0.24469    0.85022    1.000
    C58      C        0.35748    0.21688    0.80444    1.000
    C59      C        0.53111    0.21721    0.76358    1.000
    C60      C        0.55403    0.24383    0.80774    1.000
    C61      C        0.18539    0.57489    0.09542    1.000
    C62      C        0.17013    0.63593    0.04534    1.000
    C63      C        0.07813    0.63143    0.03394    1.000
    C64      C        0.99823    0.56433    0.07514    1.000
    C65      C        0.01850    0.50410    0.12420    1.000
    C66      C        0.06388    0.69488    0.98064    1.000
    C67      C        0.10416    0.80936    0.89968    1.000
    C68      C        0.17358    0.88778    0.85184    1.000
    C69      C        0.27299    0.90509    0.85022    1.000
    C70      C        0.33808    0.97868    0.80444    1.000
    C71      C        0.20531    0.01921    0.76358    1.000
    C72      C        0.13823    0.94843    0.80774    1.000
    C73      C        0.32969    0.18539    0.59542    1.000
    C74      C        0.31873    0.17013    0.54534    1.000
    C75      C        0.33463    0.07813    0.53394    1.000
    C76      C        0.36053    0.99823    0.57514    1.000
    C77      C        0.37170    0.01850    0.62420    1.000
    C78      C        0.32448    0.06388    0.48064    1.000
    C79      C        0.29096    0.10416    0.39968    1.000
    C80      C        0.26038    0.17358    0.35184    1.000
    C81      C        0.24469    0.27299    0.35022    1.000
    C82      C        0.21688    0.33808    0.30444    1.000
    C83      C        0.21721    0.20531    0.26358    1.000
    C84      C        0.24383    0.13823    0.30774    1.000
    C85      C        0.57489    0.21919    0.59542    1.000
    C86      C        0.63593    0.28453    0.54534    1.000
    C87      C        0.63143    0.38793    0.53394    1.000
    C88      C        0.56433    0.42663    0.57514    1.000
    C89      C        0.50410    0.35730    0.62420    1.000
    C90      C        0.69488    0.45548    0.48064    1.000
    C91      C        0.80936    0.49616    0.39968    1.000
    C92      C        0.88778    0.47458    0.35184    1.000
    C93      C        0.90509    0.37679    0.35022    1.000
    C94      C        0.97868    0.35748    0.30444    1.000
    C95      C        0.01921    0.53111    0.26358    1.000
    C96      C        0.94843    0.55403    0.30774    1.000
    N17      N        0.25454    0.35894    0.13492    1.000
    N18      N        0.55355    0.34745    0.95830    1.000
    N19      N        0.57695    0.32405    0.90550    1.000
    N20      N        0.43503    0.20053    0.76154    1.000
    N21      N        0.11054    0.50614    0.13492    1.000
    N22      N        0.98815    0.69425    0.95830    1.000
    N23      N        0.01755    0.77045    0.90550    1.000
    N24      N        0.30343    0.03793    0.76154    1.000
    N25      N        0.35894    0.11054    0.63492    1.000
    N26      N        0.34745    0.98815    0.45830    1.000
    N27      N        0.32405    0.01755    0.40550    1.000
    N28      N        0.20053    0.30343    0.26154    1.000
    N29      N        0.50614    0.25454    0.63492    1.000
    N30      N        0.69425    0.55355    0.45830    1.000
    N31      N        0.77045    0.57695    0.40550    1.000
    N32      N        0.03793    0.43503    0.26154    1.000
    O5       O        0.41284    0.29034    0.94552    1.000
    O6       O        0.14164    0.76414    0.94552    1.000
    O7       O        0.29034    0.14164    0.44552    1.000
    O8       O        0.76414    0.41284    0.44552    1.000
    Cl1      Cl       0.69056    0.44056    0.11888    1.000
    O9       O        0.77880    0.39350    0.12580    1.000
    O10      O        0.64670    0.33870    0.13860    1.000
    O11      O        0.59540    0.48070    0.12580    1.000
    O12      O        0.71470    0.52270    0.13860    1.000
    Cl2      Cl       0.44056    0.69056    0.61888    1.000
    O13      O        0.39350    0.59540    0.62580    1.000
    O14      O        0.33870    0.71470    0.63860    1.000
    O15      O        0.48070    0.77880    0.62580    1.000
    O16      O        0.52270    0.64670    0.63860    1.000
    Cl3      Cl       0.30944    0.55944    0.88112    1.000
    O17      O        0.22120    0.60650    0.87420    1.000
    O18      O        0.35330    0.66130    0.86140    1.000
    O19      O        0.40460    0.51930    0.87420    1.000
    O20      O        0.28530    0.47730    0.86140    1.000
    Cl4      Cl       0.55944    0.30944    0.38112    1.000
    O21      O        0.60650    0.40460    0.37420    1.000
    O22      O        0.66130    0.28530    0.36140    1.000
    O23      O        0.51930    0.22120    0.37420    1.000
    O24      O        0.47730    0.35330    0.36140    1.000
