# CIF file generated by openbabel 3.1.0, see https://openbabel.org
data_I
_chemical_name_common 'image0'
_cell_length_a 10.1604
_cell_length_b 12.0085
_cell_length_c 7.1892
_cell_angle_alpha 90
_cell_angle_beta 90.797
_cell_angle_gamma 90
_space_group_name_H-M_alt 'P 1'
_space_group_name_Hall 'P 1'
loop_
    _symmetry_equiv_pos_as_xyz
    x,y,z
loop_
    _atom_site_label
    _atom_site_type_symbol
    _atom_site_fract_x
    _atom_site_fract_y
    _atom_site_fract_z
    _atom_site_occupancy
    Ga1      Ga       0.83394    0.13153    0.32426    1.000
    P1       P        0.11782    0.19412    0.25133    1.000
    O1       O        0.97480    0.23073    0.29010    1.000
    O2       O        0.19390    0.30170    0.20900    1.000
    O3       O        0.18290    0.13690    0.42180    1.000
    O4       O        0.87690    0.88440    0.91320    1.000
    Ga2      Ga       0.33394    0.63153    0.32426    1.000
    P2       P        0.61782    0.69412    0.25133    1.000
    O5       O        0.47480    0.73073    0.29010    1.000
    O6       O        0.69390    0.80170    0.20900    1.000
    O7       O        0.68290    0.63690    0.42180    1.000
    O8       O        0.37690    0.38440    0.91320    1.000
    Ga3      Ga       0.16606    0.13153    0.67574    1.000
    P3       P        0.88218    0.19412    0.74867    1.000
    O9       O        0.02520    0.23073    0.70990    1.000
    O10      O        0.80610    0.30170    0.79100    1.000
    O11      O        0.81710    0.13690    0.57820    1.000
    O12      O        0.12310    0.88440    0.08680    1.000
    Ga4      Ga       0.66606    0.63153    0.67574    1.000
    P4       P        0.38218    0.69412    0.74867    1.000
    O13      O        0.52520    0.73073    0.70990    1.000
    O14      O        0.30610    0.80170    0.79100    1.000
    O15      O        0.31710    0.63690    0.57820    1.000
    O16      O        0.62310    0.38440    0.08680    1.000
    Ga5      Ga       0.16606    0.86847    0.67574    1.000
    P5       P        0.88218    0.80588    0.74867    1.000
    O17      O        0.02520    0.76927    0.70990    1.000
    O18      O        0.80610    0.69830    0.79100    1.000
    O19      O        0.81710    0.86310    0.57820    1.000
    O20      O        0.12310    0.11560    0.08680    1.000
    Ga6      Ga       0.66606    0.36847    0.67574    1.000
    P6       P        0.38218    0.30588    0.74867    1.000
    O21      O        0.52520    0.26927    0.70990    1.000
    O22      O        0.30610    0.19830    0.79100    1.000
    O23      O        0.31710    0.36310    0.57820    1.000
    O24      O        0.62310    0.61560    0.08680    1.000
    Ga7      Ga       0.83394    0.86847    0.32426    1.000
    P7       P        0.11782    0.80588    0.25133    1.000
    O25      O        0.97480    0.76927    0.29010    1.000
    O26      O        0.19390    0.69830    0.20900    1.000
    O27      O        0.18290    0.86310    0.42180    1.000
    O28      O        0.87690    0.11560    0.91320    1.000
    Ga8      Ga       0.33394    0.36847    0.32426    1.000
    P8       P        0.61782    0.30588    0.25133    1.000
    O29      O        0.47480    0.26927    0.29010    1.000
    O30      O        0.69390    0.19830    0.20900    1.000
    O31      O        0.68290    0.36310    0.42180    1.000
    O32      O        0.37690    0.61560    0.91320    1.000
    Ga9      Ga       0.00000    0.00000    0.00000    1.000
    Ga10     Ga       0.50000    0.50000    0.00000    1.000
    O33      O        0.89940    0.00000    0.23720    1.000
    O34      O        0.39940    0.50000    0.23720    1.000
    O35      O        0.10060    0.00000    0.76280    1.000
    O36      O        0.60060    0.50000    0.76280    1.000
