# CIF file generated by openbabel 3.1.0, see https://openbabel.org
data_I
_chemical_name_common 'image0'
_cell_length_a 13.0676
_cell_length_b 13.0676
_cell_length_c 13.0676
_cell_angle_alpha 90
_cell_angle_beta 90
_cell_angle_gamma 90
_space_group_name_H-M_alt 'P 1'
_space_group_name_Hall 'P 1'
loop_
    _symmetry_equiv_pos_as_xyz
    x,y,z
loop_
    _atom_site_label
    _atom_site_type_symbol
    _atom_site_fract_x
    _atom_site_fract_y
    _atom_site_fract_z
    _atom_site_occupancy
    N1       N        0.43504    0.45523    0.13499    1.000
    N2       N        0.48005    0.46026    0.21418    1.000
    N3       N        0.52070    0.46320    0.29254    1.000
    N4       N        0.06496    0.54477    0.63499    1.000
    N5       N        0.01995    0.53974    0.71418    1.000
    N6       N        0.97930    0.53680    0.79254    1.000
    N7       N        0.56496    0.95523    0.36501    1.000
    N8       N        0.51995    0.96026    0.28582    1.000
    N9       N        0.47930    0.96320    0.20746    1.000
    N10      N        0.93504    0.04477    0.86501    1.000
    N11      N        0.98005    0.03974    0.78582    1.000
    N12      N        0.02070    0.03680    0.70746    1.000
    N13      N        0.13499    0.43504    0.45523    1.000
    N14      N        0.21418    0.48005    0.46026    1.000
    N15      N        0.29254    0.52070    0.46320    1.000
    N16      N        0.63499    0.06496    0.54477    1.000
    N17      N        0.71418    0.01995    0.53974    1.000
    N18      N        0.79254    0.97930    0.53680    1.000
    N19      N        0.36501    0.56496    0.95523    1.000
    N20      N        0.28582    0.51995    0.96026    1.000
    N21      N        0.20746    0.47930    0.96320    1.000
    N22      N        0.86501    0.93504    0.04477    1.000
    N23      N        0.78582    0.98005    0.03974    1.000
    N24      N        0.70746    0.02070    0.03680    1.000
    N25      N        0.45523    0.13499    0.43504    1.000
    N26      N        0.46026    0.21418    0.48005    1.000
    N27      N        0.46320    0.29254    0.52070    1.000
    N28      N        0.54477    0.63499    0.06496    1.000
    N29      N        0.53974    0.71418    0.01995    1.000
    N30      N        0.53680    0.79254    0.97930    1.000
    N31      N        0.95523    0.36501    0.56496    1.000
    N32      N        0.96026    0.28582    0.51995    1.000
    N33      N        0.96320    0.20746    0.47930    1.000
    N34      N        0.04477    0.86501    0.93504    1.000
    N35      N        0.03974    0.78582    0.98005    1.000
    N36      N        0.03680    0.70746    0.02070    1.000
    N37      N        0.56496    0.54477    0.86501    1.000
    N38      N        0.51995    0.53974    0.78582    1.000
    N39      N        0.47930    0.53680    0.70746    1.000
    N40      N        0.93504    0.45523    0.36501    1.000
    N41      N        0.98005    0.46026    0.28582    1.000
    N42      N        0.02070    0.46320    0.20746    1.000
    N43      N        0.43504    0.04477    0.63499    1.000
    N44      N        0.48005    0.03974    0.71418    1.000
    N45      N        0.52070    0.03680    0.79254    1.000
    N46      N        0.06496    0.95523    0.13499    1.000
    N47      N        0.01995    0.96026    0.21418    1.000
    N48      N        0.97930    0.96320    0.29254    1.000
    N49      N        0.86501    0.56496    0.54477    1.000
    N50      N        0.78582    0.51995    0.53974    1.000
    N51      N        0.70746    0.47930    0.53680    1.000
    N52      N        0.36501    0.93504    0.45523    1.000
    N53      N        0.28582    0.98005    0.46026    1.000
    N54      N        0.20746    0.02070    0.46320    1.000
    N55      N        0.63499    0.43504    0.04477    1.000
    N56      N        0.71418    0.48005    0.03974    1.000
    N57      N        0.79254    0.52070    0.03680    1.000
    N58      N        0.13499    0.06496    0.95523    1.000
    N59      N        0.21418    0.01995    0.96026    1.000
    N60      N        0.29254    0.97930    0.96320    1.000
    N61      N        0.54477    0.86501    0.56496    1.000
    N62      N        0.53974    0.78582    0.51995    1.000
    N63      N        0.53680    0.70746    0.47930    1.000
    N64      N        0.45523    0.36501    0.93504    1.000
    N65      N        0.46026    0.28582    0.98005    1.000
    N66      N        0.46320    0.20746    0.02070    1.000
    N67      N        0.04477    0.63499    0.43504    1.000
    N68      N        0.03974    0.71418    0.48005    1.000
    N69      N        0.03680    0.79254    0.52070    1.000
    N70      N        0.95523    0.13499    0.06496    1.000
    N71      N        0.96026    0.21418    0.01995    1.000
    N72      N        0.96320    0.29254    0.97930    1.000
    Cr1      Cr       0.50000    0.50000    0.00000    1.000
    Cr2      Cr       0.00000    0.50000    0.50000    1.000
    Cr3      Cr       0.50000    0.00000    0.50000    1.000
    Cr4      Cr       0.00000    0.00000    0.00000    1.000
    K1       K        0.50000    0.50000    0.50000    1.000
    K2       K        0.00000    0.50000    0.00000    1.000
    K3       K        0.50000    0.00000    0.00000    1.000
    K4       K        0.00000    0.00000    0.50000    1.000
