# CIF file generated by openbabel 3.1.0, see https://openbabel.org
data_I
_chemical_name_common 'image0'
_cell_length_a 6.5697
_cell_length_b 22.6167
_cell_length_c 7.8511
_cell_angle_alpha 90
_cell_angle_beta 90.154
_cell_angle_gamma 90
_space_group_name_H-M_alt 'P 1'
_space_group_name_Hall 'P 1'
loop_
    _symmetry_equiv_pos_as_xyz
    x,y,z
loop_
    _atom_site_label
    _atom_site_type_symbol
    _atom_site_fract_x
    _atom_site_fract_y
    _atom_site_fract_z
    _atom_site_occupancy
    Ni1      Ni       0.54677    0.20982    0.60598    1.000
    O1       O        0.34240    0.18020    0.42758    1.000
    O2       O        0.37820    0.16868    0.80041    1.000
    N1       N        0.92190    0.20830    0.14290    1.000
    H1       H        0.87220    0.19370    0.04460    1.000
    H2       H        0.82070    0.20990    0.21980    1.000
    O3       O        0.23800    0.26308    0.29880    1.000
    C1       C        0.23630    0.20823    0.32110    1.000
    N2       N        0.71540    0.13234    0.56450    1.000
    O4       O        0.23620    0.24599    0.93120    1.000
    C2       C        0.90610    0.12695    0.62150    1.000
    H3       H        0.96400    0.15880    0.67860    1.000
    C3       C        0.02280    0.07627    0.60000    1.000
    H4       H        0.15450    0.07460    0.64340    1.000
    C4       C        0.94140    0.02794    0.51300    1.000
    C5       C        0.09250    0.17153    0.20670    1.000
    H5       H        0.03740    0.13850    0.27310    1.000
    C6       C        0.27910    0.19184    0.92040    1.000
    C7       C        0.74450    0.03446    0.45030    1.000
    H6       H        0.68430    0.00390    0.38880    1.000
    C8       C        0.63830    0.08610    0.47900    1.000
    H7       H        0.50630    0.08900    0.43680    1.000
    C9       C        0.21170    0.14706    0.05680    1.000
    H8       H        0.12900    0.11710    0.00160    1.000
    H9       H        0.33240    0.12760    0.10080    1.000
    Ni2      Ni       0.95323    0.70982    0.89402    1.000
    O5       O        0.15760    0.68020    0.07242    1.000
    O6       O        0.12180    0.66868    0.69959    1.000
    N3       N        0.57810    0.70830    0.35710    1.000
    H10      H        0.62780    0.69370    0.45540    1.000
    H11      H        0.67930    0.70990    0.28020    1.000
    O7       O        0.26200    0.76308    0.20120    1.000
    C10      C        0.26370    0.70823    0.17890    1.000
    N4       N        0.78460    0.63234    0.93550    1.000
    O8       O        0.26380    0.74599    0.56880    1.000
    C11      C        0.59390    0.62695    0.87850    1.000
    H12      H        0.53600    0.65880    0.82140    1.000
    C12      C        0.47720    0.57627    0.90000    1.000
    H13      H        0.34550    0.57460    0.85660    1.000
    C13      C        0.55860    0.52794    0.98700    1.000
    C14      C        0.40750    0.67153    0.29330    1.000
    H14      H        0.46260    0.63850    0.22690    1.000
    C15      C        0.22090    0.69184    0.57960    1.000
    C16      C        0.75550    0.53446    0.04970    1.000
    H15      H        0.81570    0.50390    0.11120    1.000
    C17      C        0.86170    0.58610    0.02100    1.000
    H16      H        0.99370    0.58900    0.06320    1.000
    C18      C        0.28830    0.64706    0.44320    1.000
    H17      H        0.37100    0.61710    0.49840    1.000
    H18      H        0.16760    0.62760    0.39920    1.000
    Ni3      Ni       0.45323    0.79018    0.39402    1.000
    O9       O        0.65760    0.81980    0.57242    1.000
    O10      O        0.62180    0.83132    0.19959    1.000
    N5       N        0.07810    0.79170    0.85710    1.000
    H19      H        0.12780    0.80630    0.95540    1.000
    H20      H        0.17930    0.79010    0.78020    1.000
    O11      O        0.76200    0.73692    0.70120    1.000
    C19      C        0.76370    0.79177    0.67890    1.000
    N6       N        0.28460    0.86766    0.43550    1.000
    O12      O        0.76380    0.75401    0.06880    1.000
    C20      C        0.09390    0.87305    0.37850    1.000
    H21      H        0.03600    0.84120    0.32140    1.000
    C21      C        0.97720    0.92373    0.40000    1.000
    H22      H        0.84550    0.92540    0.35660    1.000
    C22      C        0.05860    0.97206    0.48700    1.000
    C23      C        0.90750    0.82847    0.79330    1.000
    H23      H        0.96260    0.86150    0.72690    1.000
    C24      C        0.72090    0.80816    0.07960    1.000
    C25      C        0.25550    0.96554    0.54970    1.000
    H24      H        0.31570    0.99610    0.61120    1.000
    C26      C        0.36170    0.91390    0.52100    1.000
    H25      H        0.49370    0.91100    0.56320    1.000
    C27      C        0.78830    0.85294    0.94320    1.000
    H26      H        0.87100    0.88290    0.99840    1.000
    H27      H        0.66760    0.87240    0.89920    1.000
    Ni4      Ni       0.04677    0.29018    0.10598    1.000
    O13      O        0.84240    0.31980    0.92758    1.000
    O14      O        0.87820    0.33132    0.30041    1.000
    N7       N        0.42190    0.29170    0.64290    1.000
    H28      H        0.37220    0.30630    0.54460    1.000
    H29      H        0.32070    0.29010    0.71980    1.000
    O15      O        0.73800    0.23692    0.79880    1.000
    C28      C        0.73630    0.29177    0.82110    1.000
    N8       N        0.21540    0.36766    0.06450    1.000
    O16      O        0.73620    0.25401    0.43120    1.000
    C29      C        0.40610    0.37305    0.12150    1.000
    H30      H        0.46400    0.34120    0.17860    1.000
    C30      C        0.52280    0.42373    0.10000    1.000
    H31      H        0.65450    0.42540    0.14340    1.000
    C31      C        0.44140    0.47206    0.01300    1.000
    C32      C        0.59250    0.32847    0.70670    1.000
    H32      H        0.53740    0.36150    0.77310    1.000
    C33      C        0.77910    0.30816    0.42040    1.000
    C34      C        0.24450    0.46554    0.95030    1.000
    H33      H        0.18430    0.49610    0.88880    1.000
    C35      C        0.13830    0.41390    0.97900    1.000
    H34      H        0.00630    0.41100    0.93680    1.000
    C36      C        0.71170    0.35294    0.55680    1.000
    H35      H        0.62900    0.38290    0.50160    1.000
    H36      H        0.83240    0.37240    0.60080    1.000
