# CIF file generated by openbabel 3.1.0, see https://openbabel.org
data_I
_chemical_name_common 'WICQIJ_clean'
_cell_length_a 15.164
_cell_length_b 16.992
_cell_length_c 17.489
_cell_angle_alpha 90
_cell_angle_beta 90
_cell_angle_gamma 90
_space_group_name_H-M_alt 'P 1'
_space_group_name_Hall 'P 1'
loop_
    _symmetry_equiv_pos_as_xyz
    x,y,z
loop_
    _atom_site_label
    _atom_site_type_symbol
    _atom_site_fract_x
    _atom_site_fract_y
    _atom_site_fract_z
    _atom_site_occupancy
    Co1      Co       0.98696    0.81716    0.54816    1.000
    Co2      Co       0.51304    0.31716    0.45184    1.000
    Co3      Co       0.98696    0.31716    0.95184    1.000
    Co4      Co       0.51304    0.81716    0.04816    1.000
    H1       H        0.79800    0.49700    0.70140    1.000
    H2       H        0.17700    0.65300    0.23900    1.000
    H3       H        0.55010    0.36140    0.62660    1.000
    H4       H        0.64480    0.43860    0.69580    1.000
    H5       H        0.80190    0.44890    0.51100    1.000
    H6       H        0.70110    0.37260    0.44740    1.000
    H7       H        0.95160    0.71620    0.68730    1.000
    H8       H        0.88730    0.60160    0.72610    1.000
    H9       H        0.77950    0.58080    0.51670    1.000
    H10      H        0.84820    0.69670    0.48460    1.000
    H11      H        0.40090    0.67240    0.08070    1.000
    H12      H        0.29480    0.62380    0.15960    1.000
    H13      H        0.28810    0.83410    0.26550    1.000
    H14      H        0.39790    0.87420    0.18530    1.000
    H15      H        0.16450    0.82890    0.47430    1.000
    H16      H        0.24740    0.79530    0.37120    1.000
    H17      H        0.05200    0.64940    0.30690    1.000
    H18      H        0.97520    0.68990    0.41160    1.000
    H19      H        0.70200    0.99700    0.29860    1.000
    H20      H        0.32300    0.15300    0.76100    1.000
    H21      H        0.94990    0.86140    0.37340    1.000
    H22      H        0.85520    0.93860    0.30420    1.000
    H23      H        0.69810    0.94890    0.48900    1.000
    H24      H        0.79890    0.87260    0.55260    1.000
    H25      H        0.54840    0.21620    0.31270    1.000
    H26      H        0.61270    0.10160    0.27390    1.000
    H27      H        0.72050    0.08080    0.48330    1.000
    H28      H        0.65180    0.19670    0.51540    1.000
    H29      H        0.09910    0.17240    0.91930    1.000
    H30      H        0.20520    0.12380    0.84040    1.000
    H31      H        0.21190    0.33410    0.73450    1.000
    H32      H        0.10210    0.37420    0.81470    1.000
    H33      H        0.33550    0.32890    0.52570    1.000
    H34      H        0.25260    0.29530    0.62880    1.000
    H35      H        0.44800    0.14940    0.69310    1.000
    H36      H        0.52480    0.18990    0.58840    1.000
    H37      H        0.79800    0.99700    0.79860    1.000
    H38      H        0.17700    0.15300    0.26100    1.000
    H39      H        0.55010    0.86140    0.87340    1.000
    H40      H        0.64480    0.93860    0.80420    1.000
    H41      H        0.80190    0.94890    0.98900    1.000
    H42      H        0.70110    0.87260    0.05260    1.000
    H43      H        0.95160    0.21620    0.81270    1.000
    H44      H        0.88730    0.10160    0.77390    1.000
    H45      H        0.77950    0.08080    0.98330    1.000
    H46      H        0.84820    0.19670    0.01540    1.000
    H47      H        0.40090    0.17240    0.41930    1.000
    H48      H        0.29480    0.12380    0.34040    1.000
    H49      H        0.28810    0.33410    0.23450    1.000
    H50      H        0.39790    0.37420    0.31470    1.000
    H51      H        0.16450    0.32890    0.02570    1.000
    H52      H        0.24740    0.29530    0.12880    1.000
    H53      H        0.05200    0.14940    0.19310    1.000
    H54      H        0.97520    0.18990    0.08840    1.000
    H55      H        0.70200    0.49700    0.20140    1.000
    H56      H        0.32300    0.65300    0.73900    1.000
    H57      H        0.94990    0.36140    0.12660    1.000
    H58      H        0.85520    0.43860    0.19580    1.000
    H59      H        0.69810    0.44890    0.01100    1.000
    H60      H        0.79890    0.37260    0.94740    1.000
    H61      H        0.54840    0.71620    0.18730    1.000
    H62      H        0.61270    0.60160    0.22610    1.000
    H63      H        0.72050    0.58080    0.01670    1.000
    H64      H        0.65180    0.69670    0.98460    1.000
    H65      H        0.09910    0.67240    0.58070    1.000
    H66      H        0.20520    0.62380    0.65960    1.000
    H67      H        0.21190    0.83410    0.76550    1.000
    H68      H        0.10210    0.87420    0.68530    1.000
    H69      H        0.33550    0.82890    0.97430    1.000
    H70      H        0.25260    0.79530    0.87120    1.000
    H71      H        0.44800    0.64940    0.80690    1.000
    H72      H        0.52480    0.68990    0.91160    1.000
    C1       C        0.60080    0.38020    0.60280    1.000
    C2       C        0.65700    0.42700    0.64490    1.000
    C3       C        0.73200    0.45660    0.60990    1.000
    C4       C        0.75010    0.43330    0.53520    1.000
    C5       C        0.68950    0.38660    0.49780    1.000
    C6       C        0.91780    0.68820    0.65220    1.000
    C7       C        0.87910    0.61920    0.67620    1.000
    C8       C        0.82710    0.57540    0.62540    1.000
    C9       C        0.81500    0.60650    0.55220    1.000
    C10      C        0.85700    0.67660    0.53350    1.000
    C11      C        0.37800    0.70520    0.11840    1.000
    C12      C        0.31340    0.67570    0.16500    1.000
    C13      C        0.27530    0.72430    0.22120    1.000
    C14      C        0.30950    0.80000    0.22830    1.000
    C15      C        0.37570    0.82360    0.17940    1.000
    C16      C        0.14090    0.79330    0.43950    1.000
    C17      C        0.19170    0.77320    0.37750    1.000
    C18      C        0.15950    0.71960    0.32420    1.000
    C19      C        0.07600    0.68710    0.33930    1.000
    C20      C        0.03050    0.71190    0.40290    1.000
    C21      C        0.89920    0.88020    0.39720    1.000
    C22      C        0.84300    0.92700    0.35510    1.000
    C23      C        0.76800    0.95660    0.39010    1.000
    C24      C        0.74990    0.93330    0.46480    1.000
    C25      C        0.81050    0.88660    0.50220    1.000
    C26      C        0.58220    0.18820    0.34780    1.000
    C27      C        0.62090    0.11920    0.32380    1.000
    C28      C        0.67290    0.07540    0.37460    1.000
    C29      C        0.68500    0.10650    0.44780    1.000
    C30      C        0.64300    0.17660    0.46650    1.000
    C31      C        0.12200    0.20520    0.88160    1.000
    C32      C        0.18660    0.17570    0.83500    1.000
    C33      C        0.22470    0.22430    0.77880    1.000
    C34      C        0.19050    0.30000    0.77170    1.000
    C35      C        0.12430    0.32360    0.82060    1.000
    C36      C        0.35910    0.29330    0.56050    1.000
    C37      C        0.30830    0.27320    0.62250    1.000
    C38      C        0.34050    0.21960    0.67580    1.000
    C39      C        0.42400    0.18710    0.66070    1.000
    C40      C        0.46950    0.21190    0.59710    1.000
    C41      C        0.60080    0.88020    0.89720    1.000
    C42      C        0.65700    0.92700    0.85510    1.000
    C43      C        0.73200    0.95660    0.89010    1.000
    C44      C        0.75010    0.93330    0.96480    1.000
    C45      C        0.68950    0.88660    0.00220    1.000
    C46      C        0.91780    0.18820    0.84780    1.000
    C47      C        0.87910    0.11920    0.82380    1.000
    C48      C        0.82710    0.07540    0.87460    1.000
    C49      C        0.81500    0.10650    0.94780    1.000
    C50      C        0.85700    0.17660    0.96650    1.000
    C51      C        0.37800    0.20520    0.38160    1.000
    C52      C        0.31340    0.17570    0.33500    1.000
    C53      C        0.27530    0.22430    0.27880    1.000
    C54      C        0.30950    0.30000    0.27170    1.000
    C55      C        0.37570    0.32360    0.32060    1.000
    C56      C        0.14090    0.29330    0.06050    1.000
    C57      C        0.19170    0.27320    0.12250    1.000
    C58      C        0.15950    0.21960    0.17580    1.000
    C59      C        0.07600    0.18710    0.16070    1.000
    C60      C        0.03050    0.21190    0.09710    1.000
    C61      C        0.89920    0.38020    0.10280    1.000
    C62      C        0.84300    0.42700    0.14490    1.000
    C63      C        0.76800    0.45660    0.10990    1.000
    C64      C        0.74990    0.43330    0.03520    1.000
    C65      C        0.81050    0.38660    0.99780    1.000
    C66      C        0.58220    0.68820    0.15220    1.000
    C67      C        0.62090    0.61920    0.17620    1.000
    C68      C        0.67290    0.57540    0.12540    1.000
    C69      C        0.68500    0.60650    0.05220    1.000
    C70      C        0.64300    0.67660    0.03350    1.000
    C71      C        0.12200    0.70520    0.61840    1.000
    C72      C        0.18660    0.67570    0.66500    1.000
    C73      C        0.22470    0.72430    0.72120    1.000
    C74      C        0.19050    0.80000    0.72830    1.000
    C75      C        0.12430    0.82360    0.67940    1.000
    C76      C        0.35910    0.79330    0.93950    1.000
    C77      C        0.30830    0.77320    0.87750    1.000
    C78      C        0.34050    0.71960    0.82420    1.000
    C79      C        0.42400    0.68710    0.83930    1.000
    C80      C        0.46950    0.71190    0.90290    1.000
    N1       N        0.90960    0.71747    0.58100    1.000
    N2       N        0.61480    0.36010    0.52970    1.000
    N3       N        0.78790    0.50760    0.65160    1.000
    N4       N        0.05960    0.76540    0.45350    1.000
    N5       N        0.20460    0.69340    0.26040    1.000
    N6       N        0.41030    0.77860    0.12370    1.000
    N7       N        0.59040    0.21747    0.41900    1.000
    N8       N        0.88520    0.86010    0.47030    1.000
    N9       N        0.71210    0.00760    0.34840    1.000
    N10      N        0.44040    0.26540    0.54650    1.000
    N11      N        0.29540    0.19340    0.73960    1.000
    N12      N        0.08970    0.27860    0.87630    1.000
    N13      N        0.90960    0.21747    0.91900    1.000
    N14      N        0.61480    0.86010    0.97030    1.000
    N15      N        0.78790    0.00760    0.84840    1.000
    N16      N        0.05960    0.26540    0.04650    1.000
    N17      N        0.20460    0.19340    0.23960    1.000
    N18      N        0.41030    0.27860    0.37630    1.000
    N19      N        0.59040    0.71747    0.08100    1.000
    N20      N        0.88520    0.36010    0.02970    1.000
    N21      N        0.71210    0.50760    0.15160    1.000
    N22      N        0.44040    0.76540    0.95350    1.000
    N23      N        0.29540    0.69340    0.76040    1.000
    N24      N        0.08970    0.77860    0.62370    1.000
    Co5      Co       0.01304    0.68284    0.04816    1.000
    Co6      Co       0.48696    0.18284    0.95184    1.000
    Co7      Co       0.01304    0.18284    0.45184    1.000
    Co8      Co       0.48696    0.68284    0.54816    1.000
    H73      H        0.20200    0.00300    0.20140    1.000
    H74      H        0.82300    0.84700    0.73900    1.000
    H75      H        0.44990    0.13860    0.12660    1.000
    H76      H        0.35520    0.06140    0.19580    1.000
    H77      H        0.19810    0.05110    0.01100    1.000
    H78      H        0.29890    0.12740    0.94740    1.000
    H79      H        0.04840    0.78380    0.18730    1.000
    H80      H        0.11270    0.89840    0.22610    1.000
    H81      H        0.22050    0.91920    0.01670    1.000
    H82      H        0.15180    0.80330    0.98460    1.000
    H83      H        0.59910    0.82760    0.58070    1.000
    H84      H        0.70520    0.87620    0.65960    1.000
    H85      H        0.71190    0.66590    0.76550    1.000
    H86      H        0.60210    0.62580    0.68530    1.000
    H87      H        0.83550    0.67110    0.97430    1.000
    H88      H        0.75260    0.70470    0.87120    1.000
    H89      H        0.94800    0.85060    0.80690    1.000
    H90      H        0.02480    0.81010    0.91160    1.000
    H91      H        0.29800    0.50300    0.79860    1.000
    H92      H        0.67700    0.34700    0.26100    1.000
    H93      H        0.05010    0.63860    0.87340    1.000
    H94      H        0.14480    0.56140    0.80420    1.000
    H95      H        0.30190    0.55110    0.98900    1.000
    H96      H        0.20110    0.62740    0.05260    1.000
    H97      H        0.45160    0.28380    0.81270    1.000
    H98      H        0.38730    0.39840    0.77390    1.000
    H99      H        0.27950    0.41920    0.98330    1.000
    H100     H        0.34820    0.30330    0.01540    1.000
    H101     H        0.90090    0.32760    0.41930    1.000
    H102     H        0.79480    0.37620    0.34040    1.000
    H103     H        0.78810    0.16590    0.23450    1.000
    H104     H        0.89790    0.12580    0.31470    1.000
    H105     H        0.66450    0.17110    0.02570    1.000
    H106     H        0.74740    0.20470    0.12880    1.000
    H107     H        0.55200    0.35060    0.19310    1.000
    H108     H        0.47520    0.31010    0.08840    1.000
    H109     H        0.20200    0.50300    0.29860    1.000
    H110     H        0.82300    0.34700    0.76100    1.000
    H111     H        0.44990    0.63860    0.37340    1.000
    H112     H        0.35520    0.56140    0.30420    1.000
    H113     H        0.19810    0.55110    0.48900    1.000
    H114     H        0.29890    0.62740    0.55260    1.000
    H115     H        0.04840    0.28380    0.31270    1.000
    H116     H        0.11270    0.39840    0.27390    1.000
    H117     H        0.22050    0.41920    0.48330    1.000
    H118     H        0.15180    0.30330    0.51540    1.000
    H119     H        0.59910    0.32760    0.91930    1.000
    H120     H        0.70520    0.37620    0.84040    1.000
    H121     H        0.71190    0.16590    0.73450    1.000
    H122     H        0.60210    0.12580    0.81470    1.000
    H123     H        0.83550    0.17110    0.52570    1.000
    H124     H        0.75260    0.20470    0.62880    1.000
    H125     H        0.94800    0.35060    0.69310    1.000
    H126     H        0.02480    0.31010    0.58840    1.000
    H127     H        0.29800    0.00300    0.70140    1.000
    H128     H        0.67700    0.84700    0.23900    1.000
    H129     H        0.05010    0.13860    0.62660    1.000
    H130     H        0.14480    0.06140    0.69580    1.000
    H131     H        0.30190    0.05110    0.51100    1.000
    H132     H        0.20110    0.12740    0.44740    1.000
    H133     H        0.45160    0.78380    0.68730    1.000
    H134     H        0.38730    0.89840    0.72610    1.000
    H135     H        0.27950    0.91920    0.51670    1.000
    H136     H        0.34820    0.80330    0.48460    1.000
    H137     H        0.90090    0.82760    0.08070    1.000
    H138     H        0.79480    0.87620    0.15960    1.000
    H139     H        0.78810    0.66590    0.26550    1.000
    H140     H        0.89790    0.62580    0.18530    1.000
    H141     H        0.66450    0.67110    0.47430    1.000
    H142     H        0.74740    0.70470    0.37120    1.000
    H143     H        0.55200    0.85060    0.30690    1.000
    H144     H        0.47520    0.81010    0.41160    1.000
    C81      C        0.39920    0.11980    0.10280    1.000
    C82      C        0.34300    0.07300    0.14490    1.000
    C83      C        0.26800    0.04340    0.10990    1.000
    C84      C        0.24990    0.06670    0.03520    1.000
    C85      C        0.31050    0.11340    0.99780    1.000
    C86      C        0.08220    0.81180    0.15220    1.000
    C87      C        0.12090    0.88080    0.17620    1.000
    C88      C        0.17290    0.92460    0.12540    1.000
    C89      C        0.18500    0.89350    0.05220    1.000
    C90      C        0.14300    0.82340    0.03350    1.000
    C91      C        0.62200    0.79480    0.61840    1.000
    C92      C        0.68660    0.82430    0.66500    1.000
    C93      C        0.72470    0.77570    0.72120    1.000
    C94      C        0.69050    0.70000    0.72830    1.000
    C95      C        0.62430    0.67640    0.67940    1.000
    C96      C        0.85910    0.70670    0.93950    1.000
    C97      C        0.80830    0.72680    0.87750    1.000
    C98      C        0.84050    0.78040    0.82420    1.000
    C99      C        0.92400    0.81290    0.83930    1.000
    C100     C        0.96950    0.78810    0.90290    1.000
    C101     C        0.10080    0.61980    0.89720    1.000
    C102     C        0.15700    0.57300    0.85510    1.000
    C103     C        0.23200    0.54340    0.89010    1.000
    C104     C        0.25010    0.56670    0.96480    1.000
    C105     C        0.18950    0.61340    0.00220    1.000
    C106     C        0.41780    0.31180    0.84780    1.000
    C107     C        0.37910    0.38080    0.82380    1.000
    C108     C        0.32710    0.42460    0.87460    1.000
    C109     C        0.31500    0.39350    0.94780    1.000
    C110     C        0.35700    0.32340    0.96650    1.000
    C111     C        0.87800    0.29480    0.38160    1.000
    C112     C        0.81340    0.32430    0.33500    1.000
    C113     C        0.77530    0.27570    0.27880    1.000
    C114     C        0.80950    0.20000    0.27170    1.000
    C115     C        0.87570    0.17640    0.32060    1.000
    C116     C        0.64090    0.20670    0.06050    1.000
    C117     C        0.69170    0.22680    0.12250    1.000
    C118     C        0.65950    0.28040    0.17580    1.000
    C119     C        0.57600    0.31290    0.16070    1.000
    C120     C        0.53050    0.28810    0.09710    1.000
    C121     C        0.39920    0.61980    0.39720    1.000
    C122     C        0.34300    0.57300    0.35510    1.000
    C123     C        0.26800    0.54340    0.39010    1.000
    C124     C        0.24990    0.56670    0.46480    1.000
    C125     C        0.31050    0.61340    0.50220    1.000
    C126     C        0.08220    0.31180    0.34780    1.000
    C127     C        0.12090    0.38080    0.32380    1.000
    C128     C        0.17290    0.42460    0.37460    1.000
    C129     C        0.18500    0.39350    0.44780    1.000
    C130     C        0.14300    0.32340    0.46650    1.000
    C131     C        0.62200    0.29480    0.88160    1.000
    C132     C        0.68660    0.32430    0.83500    1.000
    C133     C        0.72470    0.27570    0.77880    1.000
    C134     C        0.69050    0.20000    0.77170    1.000
    C135     C        0.62430    0.17640    0.82060    1.000
    C136     C        0.85910    0.20670    0.56050    1.000
    C137     C        0.80830    0.22680    0.62250    1.000
    C138     C        0.84050    0.28040    0.67580    1.000
    C139     C        0.92400    0.31290    0.66070    1.000
    C140     C        0.96950    0.28810    0.59710    1.000
    C141     C        0.10080    0.11980    0.60280    1.000
    C142     C        0.15700    0.07300    0.64490    1.000
    C143     C        0.23200    0.04340    0.60990    1.000
    C144     C        0.25010    0.06670    0.53520    1.000
    C145     C        0.18950    0.11340    0.49780    1.000
    C146     C        0.41780    0.81180    0.65220    1.000
    C147     C        0.37910    0.88080    0.67620    1.000
    C148     C        0.32710    0.92460    0.62540    1.000
    C149     C        0.31500    0.89350    0.55220    1.000
    C150     C        0.35700    0.82340    0.53350    1.000
    C151     C        0.87800    0.79480    0.11840    1.000
    C152     C        0.81340    0.82430    0.16500    1.000
    C153     C        0.77530    0.77570    0.22120    1.000
    C154     C        0.80950    0.70000    0.22830    1.000
    C155     C        0.87570    0.67640    0.17940    1.000
    C156     C        0.64090    0.70670    0.43950    1.000
    C157     C        0.69170    0.72680    0.37750    1.000
    C158     C        0.65950    0.78040    0.32420    1.000
    C159     C        0.57600    0.81290    0.33930    1.000
    C160     C        0.53050    0.78810    0.40290    1.000
    N25      N        0.09040    0.78253    0.08100    1.000
    N26      N        0.38520    0.13990    0.02970    1.000
    N27      N        0.21210    0.99240    0.15160    1.000
    N28      N        0.94040    0.73460    0.95350    1.000
    N29      N        0.79540    0.80660    0.76040    1.000
    N30      N        0.58970    0.72140    0.62370    1.000
    N31      N        0.40960    0.28253    0.91900    1.000
    N32      N        0.11480    0.63990    0.97030    1.000
    N33      N        0.28790    0.49240    0.84840    1.000
    N34      N        0.55960    0.23460    0.04650    1.000
    N35      N        0.70460    0.30660    0.23960    1.000
    N36      N        0.91030    0.22140    0.37630    1.000
    N37      N        0.09040    0.28253    0.41900    1.000
    N38      N        0.38520    0.63990    0.47030    1.000
    N39      N        0.21210    0.49240    0.34840    1.000
    N40      N        0.94040    0.23460    0.54650    1.000
    N41      N        0.79540    0.30660    0.73960    1.000
    N42      N        0.58970    0.22140    0.87630    1.000
    N43      N        0.40960    0.78253    0.58100    1.000
    N44      N        0.11480    0.13990    0.52970    1.000
    N45      N        0.28790    0.99240    0.65160    1.000
    N46      N        0.55960    0.73460    0.45350    1.000
    N47      N        0.70460    0.80660    0.26040    1.000
    N48      N        0.91030    0.72140    0.12370    1.000
