# CIF file generated by openbabel 3.1.0, see https://openbabel.org
data_I
_chemical_name_common 'FUWYAY_clean'
_cell_length_a 6.9128
_cell_length_b 9.24
_cell_length_c 16.095
_cell_angle_alpha 90
_cell_angle_beta 90
_cell_angle_gamma 90
_space_group_name_H-M_alt 'P 1'
_space_group_name_Hall 'P 1'
loop_
    _symmetry_equiv_pos_as_xyz
    x,y,z
loop_
    _atom_site_label
    _atom_site_type_symbol
    _atom_site_fract_x
    _atom_site_fract_y
    _atom_site_fract_z
    _atom_site_occupancy
    Mn1      Mn       0.75000    0.19779    0.16521    1.000
    Mn2      Mn       0.25000    0.30221    0.66521    1.000
    Mn3      Mn       0.25000    0.80221    0.83479    1.000
    Mn4      Mn       0.75000    0.69779    0.33479    1.000
    Mn5      Mn       0.50000    0.50000    0.50000    1.000
    Mn6      Mn       0.50000    0.00000    0.00000    1.000
    Mn7      Mn       0.00000    0.50000    0.50000    1.000
    Mn8      Mn       0.00000    0.00000    0.00000    1.000
    H1       H        0.14230    0.36670    0.28790    1.000
    H2       H        0.85770    0.13330    0.78790    1.000
    H3       H        0.64230    0.63330    0.71210    1.000
    H4       H        0.35770    0.86670    0.21210    1.000
    H5       H        0.85770    0.63330    0.71210    1.000
    H6       H        0.14230    0.86670    0.21210    1.000
    H7       H        0.35770    0.36670    0.28790    1.000
    H8       H        0.64230    0.13330    0.78790    1.000
    H9       H        0.75000    0.20500    0.00900    1.000
    H10      H        0.25000    0.29500    0.50900    1.000
    H11      H        0.25000    0.79500    0.99100    1.000
    H12      H        0.75000    0.70500    0.49100    1.000
    C1       C        0.25000    0.24700    0.20040    1.000
    C2       C        0.75000    0.25300    0.70040    1.000
    C3       C        0.75000    0.75300    0.79960    1.000
    C4       C        0.25000    0.74700    0.29960    1.000
    S1       S        0.75000    0.33681    0.35526    1.000
    S2       S        0.25000    0.16319    0.85526    1.000
    S3       S        0.25000    0.66319    0.64474    1.000
    S4       S        0.75000    0.83681    0.14474    1.000
    N1       N        0.34340    0.11870    0.10019    1.000
    N2       N        0.41100    0.19880    0.16298    1.000
    N3       N        0.65660    0.38130    0.60019    1.000
    N4       N        0.58900    0.30120    0.66298    1.000
    N5       N        0.84340    0.88130    0.89981    1.000
    N6       N        0.91100    0.80120    0.83702    1.000
    N7       N        0.15660    0.61870    0.39981    1.000
    N8       N        0.08900    0.69880    0.33702    1.000
    N9       N        0.65660    0.88130    0.89981    1.000
    N10      N        0.58900    0.80120    0.83702    1.000
    N11      N        0.34340    0.61870    0.39981    1.000
    N12      N        0.41100    0.69880    0.33702    1.000
    N13      N        0.15660    0.11870    0.10019    1.000
    N14      N        0.08900    0.19880    0.16298    1.000
    N15      N        0.84340    0.38130    0.60019    1.000
    N16      N        0.91100    0.30120    0.66298    1.000
    N17      N        0.25000    0.33720    0.26720    1.000
    N18      N        0.75000    0.16280    0.76720    1.000
    N19      N        0.75000    0.66280    0.73280    1.000
    N20      N        0.25000    0.83720    0.23280    1.000
    O1       O        0.57660    0.33230    0.40792    1.000
    O2       O        0.42340    0.16770    0.90792    1.000
    O3       O        0.07660    0.66770    0.59208    1.000
    O4       O        0.92340    0.83230    0.09208    1.000
    O5       O        0.42340    0.66770    0.59208    1.000
    O6       O        0.57660    0.83230    0.09208    1.000
    O7       O        0.92340    0.33230    0.40792    1.000
    O8       O        0.07660    0.16770    0.90792    1.000
    O9       O        0.75000    0.46920    0.30460    1.000
    O10      O        0.75000    0.21070    0.29920    1.000
    O11      O        0.75000    0.12620    0.03498    1.000
    O12      O        0.25000    0.03080    0.80460    1.000
    O13      O        0.25000    0.28930    0.79920    1.000
    O14      O        0.25000    0.37380    0.53498    1.000
    O15      O        0.25000    0.53080    0.69540    1.000
    O16      O        0.25000    0.78930    0.70080    1.000
    O17      O        0.25000    0.87380    0.96502    1.000
    O18      O        0.75000    0.96920    0.19540    1.000
    O19      O        0.75000    0.71070    0.20080    1.000
    O20      O        0.75000    0.62620    0.46502    1.000
