# CIF file generated by openbabel 3.1.0, see https://openbabel.org
data_I
_chemical_name_common 'image0'
_cell_length_a 13.045
_cell_length_b 17.192
_cell_length_c 10.3905
_cell_angle_alpha 90
_cell_angle_beta 96.914
_cell_angle_gamma 90
_space_group_name_H-M_alt 'P 1'
_space_group_name_Hall 'P 1'
loop_
    _symmetry_equiv_pos_as_xyz
    x,y,z
loop_
    _atom_site_label
    _atom_site_type_symbol
    _atom_site_fract_x
    _atom_site_fract_y
    _atom_site_fract_z
    _atom_site_occupancy
    Zn1      Zn       0.38067    0.83461    0.18706    1.000
    Zn2      Zn       0.54611    0.66803    0.38630    1.000
    P1       P        0.32315    0.72881    0.41721    1.000
    O1       O        0.35690    0.80501    0.36040    1.000
    O2       O        0.39600    0.66155    0.39180    1.000
    O3       O        0.32010    0.74020    0.56250    1.000
    C1       C        0.19750    0.70480    0.34230    1.000
    H1       H        0.19910    0.70170    0.24740    1.000
    H2       H        0.17880    0.65270    0.37250    1.000
    C2       C        0.11310    0.76260    0.36940    1.000
    H3       H        0.10480    0.76130    0.46280    1.000
    H4       H        0.13450    0.81590    0.34800    1.000
    C3       C        0.01030    0.74350    0.29010    1.000
    H5       H        0.01830    0.74880    0.19700    1.000
    H6       H        0.99310    0.68850    0.30590    1.000
    C4       C        0.92120    0.79400    0.31970    1.000
    H7       H        0.93670    0.84900    0.30140    1.000
    H8       H        0.91330    0.78970    0.41300    1.000
    C5       C        0.81980    0.77060    0.23930    1.000
    H9       H        0.82840    0.77440    0.14610    1.000
    H10      H        0.80460    0.71560    0.25810    1.000
    C6       C        0.72880    0.82050    0.26580    1.000
    H11      H        0.74260    0.87510    0.24350    1.000
    H12      H        0.72190    0.81840    0.35960    1.000
    P2       P        0.60946    0.79007    0.17604    1.000
    O4       O        0.62490    0.78475    0.03330    1.000
    O5       O        0.58030    0.70972    0.22410    1.000
    O6       O        0.52810    0.85137    0.19930    1.000
    P3       P        0.67217    0.50789    0.42641    1.000
    O7       O        0.57960    0.55763    0.37630    1.000
    O8       O        0.66680    0.48331    0.57040    1.000
    H13      H        0.62990    0.44340    0.57210    1.000
    O9       O        0.68150    0.43733    0.34130    1.000
    C7       C        0.78600    0.56540    0.43240    1.000
    H14      H        0.79740    0.57910    0.34260    1.000
    H15      H        0.77460    0.61450    0.47840    1.000
    C8       C        0.88340    0.52710    0.49850    1.000
    H16      H        0.87160    0.51290    0.58790    1.000
    H17      H        0.89510    0.47830    0.45180    1.000
    C9       C        0.97620    0.57390    0.50510    1.000
    H18      H        0.96310    0.62340    0.54910    1.000
    H19      H        0.98840    0.58700    0.41540    1.000
    C10      C        0.92480    0.46140    0.42600    1.000
    H20      H        0.93770    0.56730    0.51440    1.000
    H21      H        0.86890    0.50740    0.58400    1.000
    H22      H        0.93840    0.48040    0.33970    1.000
    H23      H        0.87150    0.42030    0.41230    1.000
    Zn3      Zn       0.61933    0.33461    0.31294    1.000
    Zn4      Zn       0.45389    0.16803    0.11370    1.000
    P4       P        0.67685    0.22881    0.08279    1.000
    O10      O        0.64310    0.30501    0.13960    1.000
    O11      O        0.60400    0.16155    0.10820    1.000
    O12      O        0.67990    0.24020    0.93750    1.000
    C11      C        0.80250    0.20480    0.15770    1.000
    H24      H        0.80090    0.20170    0.25260    1.000
    H25      H        0.82120    0.15270    0.12750    1.000
    C12      C        0.88690    0.26260    0.13060    1.000
    H26      H        0.89520    0.26130    0.03720    1.000
    H27      H        0.86550    0.31590    0.15200    1.000
    C13      C        0.98970    0.24350    0.20990    1.000
    H28      H        0.98170    0.24880    0.30300    1.000
    H29      H        0.00690    0.18850    0.19410    1.000
    C14      C        0.07880    0.29400    0.18030    1.000
    H30      H        0.06330    0.34900    0.19860    1.000
    H31      H        0.08670    0.28970    0.08700    1.000
    C15      C        0.18020    0.27060    0.26070    1.000
    H32      H        0.17160    0.27440    0.35390    1.000
    H33      H        0.19540    0.21560    0.24190    1.000
    C16      C        0.27120    0.32050    0.23420    1.000
    H34      H        0.25740    0.37510    0.25650    1.000
    H35      H        0.27810    0.31840    0.14040    1.000
    P5       P        0.39054    0.29007    0.32396    1.000
    O13      O        0.37510    0.28475    0.46670    1.000
    O14      O        0.41970    0.20972    0.27590    1.000
    O15      O        0.47190    0.35137    0.30070    1.000
    P6       P        0.32783    0.00789    0.07359    1.000
    O16      O        0.42040    0.05763    0.12370    1.000
    O17      O        0.33320    0.98331    0.92960    1.000
    H36      H        0.37010    0.94340    0.92790    1.000
    O18      O        0.31850    0.93733    0.15870    1.000
    C17      C        0.21400    0.06540    0.06760    1.000
    H37      H        0.20260    0.07910    0.15740    1.000
    H38      H        0.22540    0.11450    0.02160    1.000
    C18      C        0.11660    0.02710    0.00150    1.000
    H39      H        0.12840    0.01290    0.91210    1.000
    H40      H        0.10490    0.97830    0.04820    1.000
    C19      C        0.02380    0.07390    0.99490    1.000
    H41      H        0.03690    0.12340    0.95090    1.000
    H42      H        0.01160    0.08700    0.08460    1.000
    C20      C        0.07520    0.96140    0.07400    1.000
    H43      H        0.06230    0.06730    0.98560    1.000
    H44      H        0.13110    0.00740    0.91600    1.000
    H45      H        0.06160    0.98040    0.16030    1.000
    H46      H        0.12850    0.92030    0.08770    1.000
    Zn5      Zn       0.61933    0.16539    0.81294    1.000
    Zn6      Zn       0.45389    0.33197    0.61370    1.000
    P7       P        0.67685    0.27119    0.58279    1.000
    O19      O        0.64310    0.19499    0.63960    1.000
    O20      O        0.60400    0.33845    0.60820    1.000
    O21      O        0.67990    0.25980    0.43750    1.000
    C21      C        0.80250    0.29520    0.65770    1.000
    H47      H        0.80090    0.29830    0.75260    1.000
    H48      H        0.82120    0.34730    0.62750    1.000
    C22      C        0.88690    0.23740    0.63060    1.000
    H49      H        0.89520    0.23870    0.53720    1.000
    H50      H        0.86550    0.18410    0.65200    1.000
    C23      C        0.98970    0.25650    0.70990    1.000
    H51      H        0.98170    0.25120    0.80300    1.000
    H52      H        0.00690    0.31150    0.69410    1.000
    C24      C        0.07880    0.20600    0.68030    1.000
    H53      H        0.06330    0.15100    0.69860    1.000
    H54      H        0.08670    0.21030    0.58700    1.000
    C25      C        0.18020    0.22940    0.76070    1.000
    H55      H        0.17160    0.22560    0.85390    1.000
    H56      H        0.19540    0.28440    0.74190    1.000
    C26      C        0.27120    0.17950    0.73420    1.000
    H57      H        0.25740    0.12490    0.75650    1.000
    H58      H        0.27810    0.18160    0.64040    1.000
    P8       P        0.39054    0.20993    0.82396    1.000
    O22      O        0.37510    0.21525    0.96670    1.000
    O23      O        0.41970    0.29028    0.77590    1.000
    O24      O        0.47190    0.14863    0.80070    1.000
    P9       P        0.32783    0.49211    0.57359    1.000
    O25      O        0.42040    0.44237    0.62370    1.000
    O26      O        0.33320    0.51669    0.42960    1.000
    H59      H        0.37010    0.55660    0.42790    1.000
    O27      O        0.31850    0.56267    0.65870    1.000
    C27      C        0.21400    0.43460    0.56760    1.000
    H60      H        0.20260    0.42090    0.65740    1.000
    H61      H        0.22540    0.38550    0.52160    1.000
    C28      C        0.11660    0.47290    0.50150    1.000
    H62      H        0.12840    0.48710    0.41210    1.000
    H63      H        0.10490    0.52170    0.54820    1.000
    C29      C        0.02380    0.42610    0.49490    1.000
    H64      H        0.03690    0.37660    0.45090    1.000
    H65      H        0.01160    0.41300    0.58460    1.000
    C30      C        0.07520    0.53860    0.57400    1.000
    H66      H        0.06230    0.43270    0.48560    1.000
    H67      H        0.13110    0.49260    0.41600    1.000
    H68      H        0.06160    0.51960    0.66030    1.000
    H69      H        0.12850    0.57970    0.58770    1.000
    Zn7      Zn       0.38067    0.66539    0.68706    1.000
    Zn8      Zn       0.54611    0.83197    0.88630    1.000
    P10      P        0.32315    0.77119    0.91721    1.000
    O28      O        0.35690    0.69499    0.86040    1.000
    O29      O        0.39600    0.83845    0.89180    1.000
    O30      O        0.32010    0.75980    0.06250    1.000
    C31      C        0.19750    0.79520    0.84230    1.000
    H70      H        0.19910    0.79830    0.74740    1.000
    H71      H        0.17880    0.84730    0.87250    1.000
    C32      C        0.11310    0.73740    0.86940    1.000
    H72      H        0.10480    0.73870    0.96280    1.000
    H73      H        0.13450    0.68410    0.84800    1.000
    C33      C        0.01030    0.75650    0.79010    1.000
    H74      H        0.01830    0.75120    0.69700    1.000
    H75      H        0.99310    0.81150    0.80590    1.000
    C34      C        0.92120    0.70600    0.81970    1.000
    H76      H        0.93670    0.65100    0.80140    1.000
    H77      H        0.91330    0.71030    0.91300    1.000
    C35      C        0.81980    0.72940    0.73930    1.000
    H78      H        0.82840    0.72560    0.64610    1.000
    H79      H        0.80460    0.78440    0.75810    1.000
    C36      C        0.72880    0.67950    0.76580    1.000
    H80      H        0.74260    0.62490    0.74350    1.000
    H81      H        0.72190    0.68160    0.85960    1.000
    P11      P        0.60946    0.70993    0.67604    1.000
    O31      O        0.62490    0.71525    0.53330    1.000
    O32      O        0.58030    0.79028    0.72410    1.000
    O33      O        0.52810    0.64863    0.69930    1.000
    P12      P        0.67217    0.99211    0.92641    1.000
    O34      O        0.57960    0.94237    0.87630    1.000
    O35      O        0.66680    0.01669    0.07040    1.000
    H82      H        0.62990    0.05660    0.07210    1.000
    O36      O        0.68150    0.06267    0.84130    1.000
    C37      C        0.78600    0.93460    0.93240    1.000
    H83      H        0.79740    0.92090    0.84260    1.000
    H84      H        0.77460    0.88550    0.97840    1.000
    C38      C        0.88340    0.97290    0.99850    1.000
    H85      H        0.87160    0.98710    0.08790    1.000
    H86      H        0.89510    0.02170    0.95180    1.000
    C39      C        0.97620    0.92610    0.00510    1.000
    H87      H        0.96310    0.87660    0.04910    1.000
    H88      H        0.98840    0.91300    0.91540    1.000
    C40      C        0.92480    0.03860    0.92600    1.000
    H89      H        0.93770    0.93270    0.01440    1.000
    H90      H        0.86890    0.99260    0.08400    1.000
    H91      H        0.93840    0.01960    0.83970    1.000
    H92      H        0.87150    0.07970    0.91230    1.000
