# CIF file generated by openbabel 3.1.0, see https://openbabel.org
data_I
_chemical_name_common 'image0'
_cell_length_a 14.6666
_cell_length_b 12.395
_cell_length_c 16.6351
_cell_angle_alpha 90
_cell_angle_beta 90
_cell_angle_gamma 90
_space_group_name_H-M_alt 'P 1'
_space_group_name_Hall 'P 1'
loop_
    _symmetry_equiv_pos_as_xyz
    x,y,z
loop_
    _atom_site_label
    _atom_site_type_symbol
    _atom_site_fract_x
    _atom_site_fract_y
    _atom_site_fract_z
    _atom_site_occupancy
    Mn1      Mn       0.60521    0.48211    0.57858    1.000
    O1       O        0.59455    0.34596    0.66585    1.000
    O2       O        0.67486    0.48798    0.70128    1.000
    O3       O        0.70905    0.47937    0.48412    1.000
    O4       O        0.69872    0.63114    0.55141    1.000
    O5       O        0.49860    0.57987    0.62631    1.000
    O6       O        0.52326    0.38012    0.50253    1.000
    C1       C        0.63727    0.39929    0.71807    1.000
    C2       C        0.64237    0.35806    0.80271    1.000
    C3       C        0.69562    0.41130    0.85950    1.000
    C4       C        0.59313    0.26701    0.82532    1.000
    C5       C        0.70287    0.37141    0.93758    1.000
    C6       C        0.59608    0.22966    0.90429    1.000
    C7       C        0.65238    0.28092    0.95974    1.000
    C8       C        0.76842    0.42328    0.99526    1.000
    C9       C        0.53716    0.13615    0.92866    1.000
    Mn2      Mn       0.89479    0.51789    0.07858    1.000
    O7       O        0.90545    0.65404    0.16585    1.000
    O8       O        0.82514    0.51202    0.20128    1.000
    O9       O        0.79095    0.52063    0.98412    1.000
    O10      O        0.80128    0.36886    0.05141    1.000
    O11      O        0.00140    0.42013    0.12631    1.000
    O12      O        0.97674    0.61988    0.00253    1.000
    C10      C        0.86273    0.60071    0.21807    1.000
    C11      C        0.85763    0.64194    0.30271    1.000
    C12      C        0.80438    0.58870    0.35950    1.000
    C13      C        0.90687    0.73299    0.32532    1.000
    C14      C        0.79713    0.62859    0.43758    1.000
    C15      C        0.90392    0.77034    0.40429    1.000
    C16      C        0.84762    0.71908    0.45974    1.000
    C17      C        0.73158    0.57672    0.49526    1.000
    C18      C        0.96284    0.86385    0.42866    1.000
    Mn3      Mn       0.39479    0.98211    0.92142    1.000
    O13      O        0.40545    0.84596    0.83415    1.000
    O14      O        0.32514    0.98798    0.79872    1.000
    O15      O        0.29095    0.97937    0.01588    1.000
    O16      O        0.30128    0.13114    0.94859    1.000
    O17      O        0.50140    0.07987    0.87369    1.000
    O18      O        0.47674    0.88012    0.99747    1.000
    C19      C        0.36273    0.89929    0.78193    1.000
    C20      C        0.35763    0.85806    0.69729    1.000
    C21      C        0.30438    0.91130    0.64050    1.000
    C22      C        0.40687    0.76701    0.67468    1.000
    C23      C        0.29713    0.87141    0.56242    1.000
    C24      C        0.40392    0.72966    0.59571    1.000
    C25      C        0.34762    0.78092    0.54026    1.000
    C26      C        0.23158    0.92328    0.50474    1.000
    C27      C        0.46284    0.63615    0.57134    1.000
    Mn4      Mn       0.10521    0.01789    0.42142    1.000
    O19      O        0.09455    0.15404    0.33415    1.000
    O20      O        0.17486    0.01202    0.29872    1.000
    O21      O        0.20905    0.02063    0.51588    1.000
    O22      O        0.19872    0.86886    0.44859    1.000
    O23      O        0.99860    0.92013    0.37369    1.000
    O24      O        0.02326    0.11988    0.49747    1.000
    C28      C        0.13727    0.10071    0.28193    1.000
    C29      C        0.14237    0.14194    0.19729    1.000
    C30      C        0.19562    0.08870    0.14050    1.000
    C31      C        0.09313    0.23299    0.17468    1.000
    C32      C        0.20287    0.12859    0.06242    1.000
    C33      C        0.09608    0.27034    0.09571    1.000
    C34      C        0.15238    0.21908    0.04026    1.000
    C35      C        0.26842    0.07672    0.00474    1.000
    C36      C        0.03716    0.36385    0.07134    1.000
    Mn5      Mn       0.39479    0.51789    0.42142    1.000
    O25      O        0.40545    0.65404    0.33415    1.000
    O26      O        0.32514    0.51202    0.29872    1.000
    O27      O        0.29095    0.52063    0.51588    1.000
    O28      O        0.30128    0.36886    0.44859    1.000
    O29      O        0.50140    0.42013    0.37369    1.000
    O30      O        0.47674    0.61988    0.49747    1.000
    C37      C        0.36273    0.60071    0.28193    1.000
    C38      C        0.35763    0.64194    0.19729    1.000
    C39      C        0.30438    0.58870    0.14050    1.000
    C40      C        0.40687    0.73299    0.17468    1.000
    C41      C        0.29713    0.62859    0.06242    1.000
    C42      C        0.40392    0.77034    0.09571    1.000
    C43      C        0.34762    0.71908    0.04026    1.000
    C44      C        0.23158    0.57672    0.00474    1.000
    C45      C        0.46284    0.86385    0.07134    1.000
    Mn6      Mn       0.10521    0.48211    0.92142    1.000
    O31      O        0.09455    0.34596    0.83415    1.000
    O32      O        0.17486    0.48798    0.79872    1.000
    O33      O        0.20905    0.47937    0.01588    1.000
    O34      O        0.19872    0.63114    0.94859    1.000
    O35      O        0.99860    0.57987    0.87369    1.000
    O36      O        0.02326    0.38012    0.99747    1.000
    C46      C        0.13727    0.39929    0.78193    1.000
    C47      C        0.14237    0.35806    0.69729    1.000
    C48      C        0.19562    0.41130    0.64050    1.000
    C49      C        0.09313    0.26701    0.67468    1.000
    C50      C        0.20287    0.37141    0.56242    1.000
    C51      C        0.09608    0.22966    0.59571    1.000
    C52      C        0.15238    0.28092    0.54026    1.000
    C53      C        0.26842    0.42328    0.50474    1.000
    C54      C        0.03716    0.13615    0.57134    1.000
    Mn7      Mn       0.60521    0.01789    0.07858    1.000
    O37      O        0.59455    0.15404    0.16585    1.000
    O38      O        0.67486    0.01202    0.20128    1.000
    O39      O        0.70905    0.02063    0.98412    1.000
    O40      O        0.69872    0.86886    0.05141    1.000
    O41      O        0.49860    0.92013    0.12631    1.000
    O42      O        0.52326    0.11988    0.00253    1.000
    C55      C        0.63727    0.10071    0.21807    1.000
    C56      C        0.64237    0.14194    0.30271    1.000
    C57      C        0.69562    0.08870    0.35950    1.000
    C58      C        0.59313    0.23299    0.32532    1.000
    C59      C        0.70287    0.12859    0.43758    1.000
    C60      C        0.59608    0.27034    0.40429    1.000
    C61      C        0.65238    0.21908    0.45974    1.000
    C62      C        0.76842    0.07672    0.49526    1.000
    C63      C        0.53716    0.36385    0.42866    1.000
    Mn8      Mn       0.89479    0.98211    0.57858    1.000
    O43      O        0.90545    0.84596    0.66585    1.000
    O44      O        0.82514    0.98798    0.70128    1.000
    O45      O        0.79095    0.97937    0.48412    1.000
    O46      O        0.80128    0.13114    0.55141    1.000
    O47      O        0.00140    0.07987    0.62631    1.000
    O48      O        0.97674    0.88012    0.50253    1.000
    C64      C        0.86273    0.89929    0.71807    1.000
    C65      C        0.85763    0.85806    0.80271    1.000
    C66      C        0.80438    0.91130    0.85950    1.000
    C67      C        0.90687    0.76701    0.82532    1.000
    C68      C        0.79713    0.87141    0.93758    1.000
    C69      C        0.90392    0.72966    0.90429    1.000
    C70      C        0.84762    0.78092    0.95974    1.000
    C71      C        0.73158    0.92328    0.99526    1.000
    C72      C        0.96284    0.63615    0.92866    1.000
