# CIF file generated by openbabel 3.1.0, see https://openbabel.org
data_I
_chemical_name_common 'FAQYUR_clean'
_cell_length_a 8.1173
_cell_length_b 8.6088
_cell_length_c 19.8803
_cell_angle_alpha 88.2274
_cell_angle_beta 86.2381
_cell_angle_gamma 61.8711
_space_group_name_H-M_alt 'P 1'
_space_group_name_Hall 'P 1'
loop_
    _symmetry_equiv_pos_as_xyz
    x,y,z
loop_
    _atom_site_label
    _atom_site_type_symbol
    _atom_site_fract_x
    _atom_site_fract_y
    _atom_site_fract_z
    _atom_site_occupancy
    Nd1      Nd       0.28330    0.92460    0.51190    1.000
    Nd2      Nd       0.79210    0.92460    0.98810    1.000
    Nd3      Nd       0.71670    0.07540    0.48810    1.000
    Nd4      Nd       0.20790    0.07540    0.01190    1.000
    H1       H        0.26280    0.24560    0.30230    1.000
    H2       H        0.40380    0.28760    0.33820    1.000
    H3       H        0.09890    0.54320    0.32540    1.000
    H4       H        0.01460    0.45620    0.37790    1.000
    H5       H        0.20270    0.47060    0.46040    1.000
    H6       H        0.28530    0.55880    0.40800    1.000
    H7       H        0.39030    0.55380    0.70770    1.000
    H8       H        0.22520    0.53480    0.67940    1.000
    H9       H        0.18150    0.80720    0.76650    1.000
    H10      H        0.49160    0.24560    0.19770    1.000
    H11      H        0.30860    0.28760    0.16180    1.000
    H12      H        0.35790    0.54320    0.17460    1.000
    H13      H        0.52920    0.45620    0.12210    1.000
    H14      H        0.32670    0.47060    0.03960    1.000
    H15      H        0.15590    0.55880    0.09200    1.000
    H16      H        0.05590    0.55380    0.79230    1.000
    H17      H        0.24000    0.53480    0.82060    1.000
    H18      H        0.01130    0.80720    0.73350    1.000
    H19      H        0.73720    0.75440    0.69770    1.000
    H20      H        0.59620    0.71240    0.66180    1.000
    H21      H        0.90110    0.45680    0.67460    1.000
    H22      H        0.98540    0.54380    0.62210    1.000
    H23      H        0.79730    0.52940    0.53960    1.000
    H24      H        0.71470    0.44120    0.59200    1.000
    H25      H        0.60970    0.44620    0.29230    1.000
    H26      H        0.77480    0.46520    0.32060    1.000
    H27      H        0.81850    0.19280    0.23350    1.000
    H28      H        0.50840    0.75440    0.80230    1.000
    H29      H        0.69140    0.71240    0.83820    1.000
    H30      H        0.64210    0.45680    0.82540    1.000
    H31      H        0.47080    0.54380    0.87790    1.000
    H32      H        0.67330    0.52940    0.96040    1.000
    H33      H        0.84410    0.44120    0.90800    1.000
    H34      H        0.94410    0.44620    0.20770    1.000
    H35      H        0.76000    0.46520    0.17940    1.000
    H36      H        0.98870    0.19280    0.26650    1.000
    C1       C        0.30560    0.14840    0.39850    1.000
    C2       C        0.28730    0.28200    0.34460    1.000
    C3       C        0.12620    0.46640    0.36440    1.000
    C4       C        0.17380    0.54880    0.42180    1.000
    C5       C        0.97980    0.27180    0.55680    1.000
    C6       C        0.27130    0.72420    0.62990    1.000
    C7       C        0.26490    0.61940    0.69200    1.000
    C8       C        0.54600    0.14840    0.10150    1.000
    C9       C        0.43070    0.28200    0.15540    1.000
    C10      C        0.40740    0.46640    0.13560    1.000
    C11      C        0.27740    0.54880    0.07820    1.000
    C12      C        0.74840    0.27180    0.94320    1.000
    C13      C        0.00450    0.72420    0.87010    1.000
    C14      C        0.11570    0.61940    0.80800    1.000
    C15      C        0.69440    0.85160    0.60150    1.000
    C16      C        0.71270    0.71800    0.65540    1.000
    C17      C        0.87380    0.53360    0.63560    1.000
    C18      C        0.82620    0.45120    0.57820    1.000
    C19      C        0.02020    0.72820    0.44320    1.000
    C20      C        0.72870    0.27580    0.37010    1.000
    C21      C        0.73510    0.38060    0.30800    1.000
    C22      C        0.45400    0.85160    0.89850    1.000
    C23      C        0.56930    0.71800    0.84460    1.000
    C24      C        0.59260    0.53360    0.86440    1.000
    C25      C        0.72260    0.45120    0.92180    1.000
    C26      C        0.25160    0.72820    0.05680    1.000
    C27      C        0.99550    0.27580    0.12990    1.000
    C28      C        0.88430    0.38060    0.19200    1.000
    C29      C        0.13400    0.73200    0.75000    1.000
    C30      C        0.86600    0.26800    0.25000    1.000
    O1       O        0.44100    0.08960    0.43840    1.000
    O2       O        0.18230    0.09920    0.40570    1.000
    O3       O        0.93530    0.15940    0.53440    1.000
    O4       O        0.15030    0.23160    0.55990    1.000
    O5       O        0.20850    0.88980    0.63350    1.000
    O6       O        0.34570    0.64440    0.57420    1.000
    O7       O        0.46940    0.08960    0.06160    1.000
    O8       O        0.71850    0.09920    0.09430    1.000
    O9       O        0.90530    0.15940    0.96560    1.000
    O10      O        0.61810    0.23160    0.94010    1.000
    O11      O        0.90170    0.88980    0.86650    1.000
    O12      O        0.00990    0.64440    0.92580    1.000
    O13      O        0.55900    0.91040    0.56160    1.000
    O14      O        0.81770    0.90080    0.59430    1.000
    O15      O        0.06470    0.84060    0.46560    1.000
    O16      O        0.84970    0.76840    0.44010    1.000
    O17      O        0.79150    0.11020    0.36650    1.000
    O18      O        0.65430    0.35560    0.42580    1.000
    O19      O        0.53060    0.91040    0.93840    1.000
    O20      O        0.28150    0.90080    0.90570    1.000
    O21      O        0.09470    0.84060    0.03440    1.000
    O22      O        0.38190    0.76840    0.05990    1.000
    O23      O        0.09830    0.11020    0.13350    1.000
    O24      O        0.99010    0.35560    0.07420    1.000
