# CIF file generated by openbabel 3.1.0, see https://openbabel.org
data_I
_chemical_name_common 'image0'
_cell_length_a 7.5121
_cell_length_b 8.9927
_cell_length_c 15.153
_cell_angle_alpha 90.256
_cell_angle_beta 93.391
_cell_angle_gamma 111.091
_space_group_name_H-M_alt 'P 1'
_space_group_name_Hall 'P 1'
loop_
    _symmetry_equiv_pos_as_xyz
    x,y,z
loop_
    _atom_site_label
    _atom_site_type_symbol
    _atom_site_fract_x
    _atom_site_fract_y
    _atom_site_fract_z
    _atom_site_occupancy
    Zn1      Zn       0.71013    0.55275    0.39358    1.000
    Zn2      Zn       0.05751    0.20090    0.25163    1.000
    Zn3      Zn       0.65745    0.58168    0.12443    1.000
    P1       P        0.68142    0.28896    0.24210    1.000
    H1       H        0.49740    0.20110    0.23810    1.000
    P2       P        0.94959    0.81271    0.26678    1.000
    H2       H        0.06360    0.74970    0.23140    1.000
    P3       P        0.73099    0.50873    0.60678    1.000
    H3       H        0.83460    0.43350    0.64590    1.000
    P4       P        0.21545    0.39577    0.07689    1.000
    H4       H        0.06450    0.43840    0.07430    1.000
    O1       O        0.72760    0.37180    0.33167    1.000
    O2       O        0.71190    0.39780    0.16459    1.000
    O3       O        0.78760    0.17380    0.23301    1.000
    O4       O        0.05830    0.98970    0.27443    1.000
    O5       O        0.91330    0.74420    0.35820    1.000
    O6       O        0.76930    0.76650    0.20520    1.000
    O7       O        0.78160    0.66500    0.65640    1.000
    O8       O        0.78820    0.53290    0.51450    1.000
    O9       O        0.52310    0.40210    0.61330    1.000
    O10      O        0.17630    0.25930    0.13988    1.000
    O11      O        0.22740    0.33650    0.98467    1.000
    O12      O        0.38590    0.54200    0.10710    1.000
    Zn4      Zn       0.28987    0.44725    0.60642    1.000
    Zn5      Zn       0.94249    0.79910    0.74837    1.000
    Zn6      Zn       0.34255    0.41832    0.87557    1.000
    P5       P        0.31858    0.71104    0.75790    1.000
    H5       H        0.50260    0.79890    0.76190    1.000
    P6       P        0.05041    0.18729    0.73322    1.000
    H6       H        0.93640    0.25030    0.76860    1.000
    P7       P        0.26901    0.49127    0.39322    1.000
    H7       H        0.16540    0.56650    0.35410    1.000
    P8       P        0.78455    0.60423    0.92311    1.000
    H8       H        0.93550    0.56160    0.92570    1.000
    O13      O        0.27240    0.62820    0.66833    1.000
    O14      O        0.28810    0.60220    0.83541    1.000
    O15      O        0.21240    0.82620    0.76699    1.000
    O16      O        0.94170    0.01030    0.72557    1.000
    O17      O        0.08670    0.25580    0.64180    1.000
    O18      O        0.23070    0.23350    0.79480    1.000
    O19      O        0.21840    0.33500    0.34360    1.000
    O20      O        0.21180    0.46710    0.48550    1.000
    O21      O        0.47690    0.59790    0.38670    1.000
    O22      O        0.82370    0.74070    0.86012    1.000
    O23      O        0.77260    0.66350    0.01533    1.000
    O24      O        0.61410    0.45800    0.89290    1.000
