# CIF file generated by openbabel 3.1.0, see https://openbabel.org
data_I
_chemical_name_common 'image0'
_cell_length_a 13.854
_cell_length_b 11.411
_cell_length_c 17.71
_cell_angle_alpha 90
_cell_angle_beta 128.109
_cell_angle_gamma 90
_space_group_name_H-M_alt 'P 1'
_space_group_name_Hall 'P 1'
loop_
    _symmetry_equiv_pos_as_xyz
    x,y,z
loop_
    _atom_site_label
    _atom_site_type_symbol
    _atom_site_fract_x
    _atom_site_fract_y
    _atom_site_fract_z
    _atom_site_occupancy
    Ni1      Ni       0.87858    0.27598    0.69859    1.000
    O1       O        0.92530    0.13850    0.11800    1.000
    O2       O        0.08810    0.08480    0.12860    1.000
    O3       O        0.91690    0.30600    0.32510    1.000
    O4       O        0.07560    0.38480    0.46370    1.000
    O5       O        0.85290    0.11870    0.62750    1.000
    O6       O        0.70810    0.00190    0.51100    1.000
    O7       O        0.82100    0.43160    0.72560    1.000
    O8       O        0.65270    0.53070    0.67830    1.000
    N1       N        0.06080    0.22500    0.28900    1.000
    N2       N        0.69850    0.26600    0.60600    1.000
    C1       C        0.03970    0.12880    0.16170    1.000
    C2       C        0.02870    0.32730    0.38860    1.000
    C3       C        0.74250    0.08890    0.56270    1.000
    C4       C        0.70540    0.44490    0.67350    1.000
    C5       C        0.12170    0.17970    0.26050    1.000
    C6       C        0.25020    0.18500    0.32090    1.000
    H1       H        0.29480    0.15370    0.30110    1.000
    C7       C        0.31170    0.23790    0.41170    1.000
    C8       C        0.24210    0.29220    0.43510    1.000
    H2       H        0.28120    0.33480    0.49330    1.000
    C9       C        0.11510    0.28250    0.37150    1.000
    C10      C        0.64730    0.17230    0.54720    1.000
    C11      C        0.52210    0.16240    0.48260    1.000
    H3       H        0.48640    0.09630    0.44120    1.000
    C12      C        0.44700    0.24870    0.47730    1.000
    C13      C        0.50330    0.34660    0.53850    1.000
    H4       H        0.45490    0.40830    0.53550    1.000
    C14      C        0.63070    0.35150    0.60340    1.000
    Ni2      Ni       0.12142    0.77598    0.80141    1.000
    O9       O        0.07470    0.63850    0.38200    1.000
    O10      O        0.91190    0.58480    0.37140    1.000
    O11      O        0.08310    0.80600    0.17490    1.000
    O12      O        0.92440    0.88480    0.03630    1.000
    O13      O        0.14710    0.61870    0.87250    1.000
    O14      O        0.29190    0.50190    0.98900    1.000
    O15      O        0.17900    0.93160    0.77440    1.000
    O16      O        0.34730    0.03070    0.82170    1.000
    N3       N        0.93920    0.72500    0.21100    1.000
    N4       N        0.30150    0.76600    0.89400    1.000
    C15      C        0.96030    0.62880    0.33830    1.000
    C16      C        0.97130    0.82730    0.11140    1.000
    C17      C        0.25750    0.58890    0.93730    1.000
    C18      C        0.29460    0.94490    0.82650    1.000
    C19      C        0.87830    0.67970    0.23950    1.000
    C20      C        0.74980    0.68500    0.17910    1.000
    H5       H        0.70520    0.65370    0.19890    1.000
    C21      C        0.68830    0.73790    0.08830    1.000
    C22      C        0.75790    0.79220    0.06490    1.000
    H6       H        0.71880    0.83480    0.00670    1.000
    C23      C        0.88490    0.78250    0.12850    1.000
    C24      C        0.35270    0.67230    0.95280    1.000
    C25      C        0.47790    0.66240    0.01740    1.000
    H7       H        0.51360    0.59630    0.05880    1.000
    C26      C        0.55300    0.74870    0.02270    1.000
    C27      C        0.49670    0.84660    0.96150    1.000
    H8       H        0.54510    0.90830    0.96450    1.000
    C28      C        0.36930    0.85150    0.89660    1.000
    Ni3      Ni       0.12142    0.72402    0.30141    1.000
    O17      O        0.07470    0.86150    0.88200    1.000
    O18      O        0.91190    0.91520    0.87140    1.000
    O19      O        0.08310    0.69400    0.67490    1.000
    O20      O        0.92440    0.61520    0.53630    1.000
    O21      O        0.14710    0.88130    0.37250    1.000
    O22      O        0.29190    0.99810    0.48900    1.000
    O23      O        0.17900    0.56840    0.27440    1.000
    O24      O        0.34730    0.46930    0.32170    1.000
    N5       N        0.93920    0.77500    0.71100    1.000
    N6       N        0.30150    0.73400    0.39400    1.000
    C29      C        0.96030    0.87120    0.83830    1.000
    C30      C        0.97130    0.67270    0.61140    1.000
    C31      C        0.25750    0.91110    0.43730    1.000
    C32      C        0.29460    0.55510    0.32650    1.000
    C33      C        0.87830    0.82030    0.73950    1.000
    C34      C        0.74980    0.81500    0.67910    1.000
    H9       H        0.70520    0.84630    0.69890    1.000
    C35      C        0.68830    0.76210    0.58830    1.000
    C36      C        0.75790    0.70780    0.56490    1.000
    H10      H        0.71880    0.66520    0.50670    1.000
    C37      C        0.88490    0.71750    0.62850    1.000
    C38      C        0.35270    0.82770    0.45280    1.000
    C39      C        0.47790    0.83760    0.51740    1.000
    H11      H        0.51360    0.90370    0.55880    1.000
    C40      C        0.55300    0.75130    0.52270    1.000
    C41      C        0.49670    0.65340    0.46150    1.000
    H12      H        0.54510    0.59170    0.46450    1.000
    C42      C        0.36930    0.64850    0.39660    1.000
    Ni4      Ni       0.87858    0.22402    0.19859    1.000
    O25      O        0.92530    0.36150    0.61800    1.000
    O26      O        0.08810    0.41520    0.62860    1.000
    O27      O        0.91690    0.19400    0.82510    1.000
    O28      O        0.07560    0.11520    0.96370    1.000
    O29      O        0.85290    0.38130    0.12750    1.000
    O30      O        0.70810    0.49810    0.01100    1.000
    O31      O        0.82100    0.06840    0.22560    1.000
    O32      O        0.65270    0.96930    0.17830    1.000
    N7       N        0.06080    0.27500    0.78900    1.000
    N8       N        0.69850    0.23400    0.10600    1.000
    C43      C        0.03970    0.37120    0.66170    1.000
    C44      C        0.02870    0.17270    0.88860    1.000
    C45      C        0.74250    0.41110    0.06270    1.000
    C46      C        0.70540    0.05510    0.17350    1.000
    C47      C        0.12170    0.32030    0.76050    1.000
    C48      C        0.25020    0.31500    0.82090    1.000
    H13      H        0.29480    0.34630    0.80110    1.000
    C49      C        0.31170    0.26210    0.91170    1.000
    C50      C        0.24210    0.20780    0.93510    1.000
    H14      H        0.28120    0.16520    0.99330    1.000
    C51      C        0.11510    0.21750    0.87150    1.000
    C52      C        0.64730    0.32770    0.04720    1.000
    C53      C        0.52210    0.33760    0.98260    1.000
    H15      H        0.48640    0.40370    0.94120    1.000
    C54      C        0.44700    0.25130    0.97730    1.000
    C55      C        0.50330    0.15340    0.03850    1.000
    H16      H        0.45490    0.09170    0.03550    1.000
    C56      C        0.63070    0.14850    0.10340    1.000
    Ni5      Ni       0.00000    0.00000    0.00000    1.000
    Ni6      Ni       0.00000    0.50000    0.50000    1.000
