# CIF file generated by openbabel 3.1.0, see https://openbabel.org
data_I
_chemical_name_common 'image0'
_cell_length_a 14.3384
_cell_length_b 13.3522
_cell_length_c 12.3444
_cell_angle_alpha 90
_cell_angle_beta 90
_cell_angle_gamma 90
_space_group_name_H-M_alt 'P 1'
_space_group_name_Hall 'P 1'
loop_
    _symmetry_equiv_pos_as_xyz
    x,y,z
loop_
    _atom_site_label
    _atom_site_type_symbol
    _atom_site_fract_x
    _atom_site_fract_y
    _atom_site_fract_z
    _atom_site_occupancy
    C1       C        0.45810    0.48560    0.13020    1.000
    C2       C        0.31890    0.47090    0.91920    1.000
    C3       C        0.47240    0.48790    0.46850    1.000
    C4       C        0.36460    0.29460    0.36500    1.000
    C5       C        0.46890    0.29330    0.95910    1.000
    Cu1      Cu       0.44566    0.43738    0.96104    1.000
    Cu2      Cu       0.37818    0.44357    0.36343    1.000
    N1       N        0.42500    0.47120    0.21150    1.000
    N2       N        0.24540    0.49510    0.89330    1.000
    C6       C        0.04190    0.51440    0.63020    1.000
    C7       C        0.18110    0.52910    0.41920    1.000
    C8       C        0.02760    0.51210    0.96850    1.000
    C9       C        0.13540    0.70540    0.86500    1.000
    C10      C        0.03110    0.70670    0.45910    1.000
    Cu3      Cu       0.05434    0.56262    0.46104    1.000
    Cu4      Cu       0.12182    0.55643    0.86343    1.000
    N3       N        0.07500    0.52880    0.71150    1.000
    N4       N        0.25460    0.50490    0.39330    1.000
    C11      C        0.54190    0.98560    0.86980    1.000
    C12      C        0.68110    0.97090    0.08080    1.000
    C13      C        0.52760    0.98790    0.53150    1.000
    C14      C        0.63540    0.79460    0.63500    1.000
    C15      C        0.53110    0.79330    0.04090    1.000
    Cu5      Cu       0.55434    0.93738    0.03896    1.000
    Cu6      Cu       0.62182    0.94357    0.63657    1.000
    N5       N        0.57500    0.97120    0.78850    1.000
    N6       N        0.75460    0.99510    0.10670    1.000
    C16      C        0.95810    0.01440    0.36980    1.000
    C17      C        0.81890    0.02910    0.58080    1.000
    C18      C        0.97240    0.01210    0.03150    1.000
    C19      C        0.86460    0.20540    0.13500    1.000
    C20      C        0.96890    0.20670    0.54090    1.000
    Cu7      Cu       0.94566    0.06262    0.53896    1.000
    Cu8      Cu       0.87818    0.05643    0.13657    1.000
    N7       N        0.92500    0.02880    0.28850    1.000
    N8       N        0.74540    0.00490    0.60670    1.000
    C21      C        0.54190    0.51440    0.86980    1.000
    C22      C        0.68110    0.52910    0.08080    1.000
    C23      C        0.52760    0.51210    0.53150    1.000
    C24      C        0.63540    0.70540    0.63500    1.000
    C25      C        0.53110    0.70670    0.04090    1.000
    Cu9      Cu       0.55434    0.56262    0.03896    1.000
    Cu10     Cu       0.62182    0.55643    0.63657    1.000
    N9       N        0.57500    0.52880    0.78850    1.000
    N10      N        0.75460    0.50490    0.10670    1.000
    C26      C        0.95810    0.48560    0.36980    1.000
    C27      C        0.81890    0.47090    0.58080    1.000
    C28      C        0.97240    0.48790    0.03150    1.000
    C29      C        0.86460    0.29460    0.13500    1.000
    C30      C        0.96890    0.29330    0.54090    1.000
    Cu11     Cu       0.94566    0.43738    0.53896    1.000
    Cu12     Cu       0.87818    0.44357    0.13657    1.000
    N11      N        0.92500    0.47120    0.28850    1.000
    N12      N        0.74540    0.49510    0.60670    1.000
    C31      C        0.45810    0.01440    0.13020    1.000
    C32      C        0.31890    0.02910    0.91920    1.000
    C33      C        0.47240    0.01210    0.46850    1.000
    C34      C        0.36460    0.20540    0.36500    1.000
    C35      C        0.46890    0.20670    0.95910    1.000
    Cu13     Cu       0.44566    0.06262    0.96104    1.000
    Cu14     Cu       0.37818    0.05643    0.36343    1.000
    N13      N        0.42500    0.02880    0.21150    1.000
    N14      N        0.24540    0.00490    0.89330    1.000
    C36      C        0.04190    0.98560    0.63020    1.000
    C37      C        0.18110    0.97090    0.41920    1.000
    C38      C        0.02760    0.98790    0.96850    1.000
    C39      C        0.13540    0.79460    0.86500    1.000
    C40      C        0.03110    0.79330    0.45910    1.000
    Cu15     Cu       0.05434    0.93738    0.46104    1.000
    Cu16     Cu       0.12182    0.94357    0.86343    1.000
    N15      N        0.07500    0.97120    0.71150    1.000
    N16      N        0.25460    0.99510    0.39330    1.000
