# CIF file generated by openbabel 3.1.0, see https://openbabel.org
data_I
_chemical_name_common 'image0'
_cell_length_a 26.2736
_cell_length_b 26.2736
_cell_length_c 6.7213
_cell_angle_alpha 90
_cell_angle_beta 90
_cell_angle_gamma 120
_space_group_name_H-M_alt 'P 1'
_space_group_name_Hall 'P 1'
loop_
    _symmetry_equiv_pos_as_xyz
    x,y,z
loop_
    _atom_site_label
    _atom_site_type_symbol
    _atom_site_fract_x
    _atom_site_fract_y
    _atom_site_fract_z
    _atom_site_occupancy
    C1       C        0.42180    0.40830    0.25330    1.000
    C2       C        0.46110    0.45280    0.12330    1.000
    C3       C        0.55730    0.54220    0.06980    1.000
    C4       C        0.51830    0.49680    0.19580    1.000
    H1       H        0.52910    0.49550    0.33290    1.000
    Fe1      Fe       0.61356    0.64838    0.34420    1.000
    O1       O        0.43910    0.40460    0.42590    1.000
    O2       O        0.37463    0.36600    0.18580    1.000
    O3       O        0.61027    0.58670    0.14470    1.000
    O4       O        0.54290    0.65780    0.19700    1.000
    H2       H        0.56330    0.63600    0.19200    1.000
    C5       C        0.48510    0.61490    0.22200    1.000
    H3       H        0.46000    0.62500    0.12900    1.000
    H4       H        0.48110    0.57450    0.18100    1.000
    H5       H        0.47400    0.61400    0.37200    1.000
    C6       C        0.08847    0.74163    0.58663    1.000
    C7       C        0.12777    0.78613    0.45663    1.000
    C8       C        0.22397    0.87553    0.40313    1.000
    C9       C        0.18497    0.83013    0.52913    1.000
    H6       H        0.19577    0.82883    0.66623    1.000
    Fe2      Fe       0.28023    0.98171    0.67753    1.000
    O5       O        0.10577    0.73793    0.75923    1.000
    O6       O        0.04130    0.69933    0.51913    1.000
    O7       O        0.27694    0.92003    0.47803    1.000
    O8       O        0.20957    0.99113    0.53033    1.000
    H7       H        0.22997    0.96933    0.52533    1.000
    C10      C        0.15177    0.94823    0.55533    1.000
    H8       H        0.12667    0.95833    0.46233    1.000
    H9       H        0.14777    0.90783    0.51433    1.000
    H10      H        0.14067    0.94733    0.70533    1.000
    C11      C        0.75513    0.07497    0.91997    1.000
    C12      C        0.79443    0.11947    0.78997    1.000
    C13      C        0.89063    0.20887    0.73647    1.000
    C14      C        0.85163    0.16347    0.86247    1.000
    H11      H        0.86243    0.16217    0.99957    1.000
    Fe3      Fe       0.94689    0.31505    0.01087    1.000
    O9       O        0.77243    0.07127    0.09257    1.000
    O10      O        0.70796    0.03267    0.85247    1.000
    O11      O        0.94360    0.25337    0.81137    1.000
    O12      O        0.87623    0.32447    0.86367    1.000
    H12      H        0.89663    0.30267    0.85867    1.000
    C15      C        0.81843    0.28157    0.88867    1.000
    H13      H        0.79333    0.29167    0.79567    1.000
    H14      H        0.81443    0.24117    0.84767    1.000
    H15      H        0.80733    0.28067    0.03867    1.000
    C16      C        0.59170    0.01350    0.25330    1.000
    C17      C        0.54720    0.00830    0.12330    1.000
    C18      C        0.45780    0.01510    0.06980    1.000
    C19      C        0.50320    0.02150    0.19580    1.000
    H16      H        0.50450    0.03360    0.33290    1.000
    Fe4      Fe       0.35162    0.96518    0.34420    1.000
    O13      O        0.59540    0.03450    0.42590    1.000
    O14      O        0.63400    0.00863    0.18580    1.000
    O15      O        0.41330    0.02357    0.14470    1.000
    O16      O        0.34220    0.88510    0.19700    1.000
    H17      H        0.36400    0.92730    0.19200    1.000
    C20      C        0.38510    0.87020    0.22200    1.000
    H18      H        0.37500    0.83500    0.12900    1.000
    H19      H        0.42550    0.90660    0.18100    1.000
    H20      H        0.38600    0.86000    0.37200    1.000
    C21      C        0.25837    0.34683    0.58663    1.000
    C22      C        0.21387    0.34163    0.45663    1.000
    C23      C        0.12447    0.34843    0.40313    1.000
    C24      C        0.16987    0.35483    0.52913    1.000
    H21      H        0.17117    0.36693    0.66623    1.000
    Fe5      Fe       0.01829    0.29851    0.67753    1.000
    O17      O        0.26207    0.36783    0.75923    1.000
    O18      O        0.30067    0.34196    0.51913    1.000
    O19      O        0.07997    0.35690    0.47803    1.000
    O20      O        0.00887    0.21843    0.53033    1.000
    H22      H        0.03067    0.26063    0.52533    1.000
    C25      C        0.05177    0.20353    0.55533    1.000
    H23      H        0.04167    0.16833    0.46233    1.000
    H24      H        0.09217    0.23993    0.51433    1.000
    H25      H        0.05267    0.19333    0.70533    1.000
    C26      C        0.92503    0.68017    0.91997    1.000
    C27      C        0.88053    0.67497    0.78997    1.000
    C28      C        0.79113    0.68177    0.73647    1.000
    C29      C        0.83653    0.68817    0.86247    1.000
    H26      H        0.83783    0.70027    0.99957    1.000
    Fe6      Fe       0.68495    0.63185    0.01087    1.000
    O21      O        0.92873    0.70117    0.09257    1.000
    O22      O        0.96733    0.67530    0.85247    1.000
    O23      O        0.74663    0.69024    0.81137    1.000
    O24      O        0.67553    0.55177    0.86367    1.000
    H27      H        0.69733    0.59397    0.85867    1.000
    C30      C        0.71843    0.53687    0.88867    1.000
    H28      H        0.70833    0.50167    0.79567    1.000
    H29      H        0.75883    0.57327    0.84767    1.000
    H30      H        0.71933    0.52667    0.03867    1.000
    C31      C        0.98650    0.57820    0.25330    1.000
    C32      C        0.99170    0.53890    0.12330    1.000
    C33      C        0.98490    0.44270    0.06980    1.000
    C34      C        0.97850    0.48170    0.19580    1.000
    H31      H        0.96640    0.47090    0.33290    1.000
    Fe7      Fe       0.03482    0.38644    0.34420    1.000
    O25      O        0.96550    0.56090    0.42590    1.000
    O26      O        0.99137    0.62537    0.18580    1.000
    O27      O        0.97643    0.38973    0.14470    1.000
    O28      O        0.11490    0.45710    0.19700    1.000
    H32      H        0.07270    0.43670    0.19200    1.000
    C35      C        0.12980    0.51490    0.22200    1.000
    H33      H        0.16500    0.54000    0.12900    1.000
    H34      H        0.09340    0.51890    0.18100    1.000
    H35      H        0.14000    0.52600    0.37200    1.000
    C36      C        0.65317    0.91153    0.58663    1.000
    C37      C        0.65837    0.87223    0.45663    1.000
    C38      C        0.65157    0.77603    0.40313    1.000
    C39      C        0.64517    0.81503    0.52913    1.000
    H36      H        0.63307    0.80423    0.66623    1.000
    Fe8      Fe       0.70149    0.71977    0.67753    1.000
    O29      O        0.63217    0.89423    0.75923    1.000
    O30      O        0.65804    0.95870    0.51913    1.000
    O31      O        0.64310    0.72306    0.47803    1.000
    O32      O        0.78157    0.79043    0.53033    1.000
    H37      H        0.73937    0.77003    0.52533    1.000
    C40      C        0.79647    0.84823    0.55533    1.000
    H38      H        0.83167    0.87333    0.46233    1.000
    H39      H        0.76007    0.85223    0.51433    1.000
    H40      H        0.80667    0.85933    0.70533    1.000
    C41      C        0.31983    0.24487    0.91997    1.000
    C42      C        0.32503    0.20557    0.78997    1.000
    C43      C        0.31823    0.10937    0.73647    1.000
    C44      C        0.31183    0.14837    0.86247    1.000
    H41      H        0.29973    0.13757    0.99957    1.000
    Fe9      Fe       0.36815    0.05311    0.01087    1.000
    O33      O        0.29883    0.22757    0.09257    1.000
    O34      O        0.32470    0.29204    0.85247    1.000
    O35      O        0.30976    0.05640    0.81137    1.000
    O36      O        0.44823    0.12377    0.86367    1.000
    H42      H        0.40603    0.10337    0.85867    1.000
    C45      C        0.46313    0.18157    0.88867    1.000
    H43      H        0.49833    0.20667    0.79567    1.000
    H44      H        0.42673    0.18557    0.84767    1.000
    H45      H        0.47333    0.19267    0.03867    1.000
    C46      C        0.57820    0.59170    0.74670    1.000
    C47      C        0.53890    0.54720    0.87670    1.000
    C48      C        0.44270    0.45780    0.93020    1.000
    C49      C        0.48170    0.50320    0.80420    1.000
    H46      H        0.47090    0.50450    0.66710    1.000
    Fe10     Fe       0.38644    0.35162    0.65580    1.000
    O37      O        0.56090    0.59540    0.57410    1.000
    O38      O        0.62537    0.63400    0.81420    1.000
    O39      O        0.38973    0.41330    0.85530    1.000
    O40      O        0.45710    0.34220    0.80300    1.000
    H47      H        0.43670    0.36400    0.80800    1.000
    C50      C        0.51490    0.38510    0.77800    1.000
    H48      H        0.54000    0.37500    0.87100    1.000
    H49      H        0.51890    0.42550    0.81900    1.000
    H50      H        0.52600    0.38600    0.62800    1.000
    C51      C        0.24487    0.92503    0.08003    1.000
    C52      C        0.20557    0.88053    0.21003    1.000
    C53      C        0.10937    0.79113    0.26353    1.000
    C54      C        0.14837    0.83653    0.13753    1.000
    H51      H        0.13757    0.83783    0.00043    1.000
    Fe11     Fe       0.05311    0.68495    0.98913    1.000
    O41      O        0.22757    0.92873    0.90743    1.000
    O42      O        0.29204    0.96733    0.14753    1.000
    O43      O        0.05640    0.74663    0.18863    1.000
    O44      O        0.12377    0.67553    0.13633    1.000
    H52      H        0.10337    0.69733    0.14133    1.000
    C55      C        0.18157    0.71843    0.11133    1.000
    H53      H        0.20667    0.70833    0.20433    1.000
    H54      H        0.18557    0.75883    0.15233    1.000
    H55      H        0.19267    0.71933    0.96133    1.000
    C56      C        0.91153    0.25837    0.41337    1.000
    C57      C        0.87223    0.21387    0.54337    1.000
    C58      C        0.77603    0.12447    0.59687    1.000
    C59      C        0.81503    0.16987    0.47087    1.000
    H56      H        0.80423    0.17117    0.33377    1.000
    Fe12     Fe       0.71977    0.01829    0.32247    1.000
    O45      O        0.89423    0.26207    0.24077    1.000
    O46      O        0.95870    0.30067    0.48087    1.000
    O47      O        0.72306    0.07997    0.52197    1.000
    O48      O        0.79043    0.00887    0.46967    1.000
    H57      H        0.77003    0.03067    0.47467    1.000
    C60      C        0.84823    0.05177    0.44467    1.000
    H58      H        0.87333    0.04167    0.53767    1.000
    H59      H        0.85223    0.09217    0.48567    1.000
    H60      H        0.85933    0.05267    0.29467    1.000
    C61      C        0.40830    0.98650    0.74670    1.000
    C62      C        0.45280    0.99170    0.87670    1.000
    C63      C        0.54220    0.98490    0.93020    1.000
    C64      C        0.49680    0.97850    0.80420    1.000
    H61      H        0.49550    0.96640    0.66710    1.000
    Fe13     Fe       0.64838    0.03482    0.65580    1.000
    O49      O        0.40460    0.96550    0.57410    1.000
    O50      O        0.36600    0.99137    0.81420    1.000
    O51      O        0.58670    0.97643    0.85530    1.000
    O52      O        0.65780    0.11490    0.80300    1.000
    H62      H        0.63600    0.07270    0.80800    1.000
    C65      C        0.61490    0.12980    0.77800    1.000
    H63      H        0.62500    0.16500    0.87100    1.000
    H64      H        0.57450    0.09340    0.81900    1.000
    H65      H        0.61400    0.14000    0.62800    1.000
    C66      C        0.07497    0.31983    0.08003    1.000
    C67      C        0.11947    0.32503    0.21003    1.000
    C68      C        0.20887    0.31823    0.26353    1.000
    C69      C        0.16347    0.31183    0.13753    1.000
    H66      H        0.16217    0.29973    0.00043    1.000
    Fe14     Fe       0.31505    0.36815    0.98913    1.000
    O53      O        0.07127    0.29883    0.90743    1.000
    O54      O        0.03267    0.32470    0.14753    1.000
    O55      O        0.25337    0.30976    0.18863    1.000
    O56      O        0.32447    0.44823    0.13633    1.000
    H67      H        0.30267    0.40603    0.14133    1.000
    C70      C        0.28157    0.46313    0.11133    1.000
    H68      H        0.29167    0.49833    0.20433    1.000
    H69      H        0.24117    0.42673    0.15233    1.000
    H70      H        0.28067    0.47333    0.96133    1.000
    C71      C        0.74163    0.65317    0.41337    1.000
    C72      C        0.78613    0.65837    0.54337    1.000
    C73      C        0.87553    0.65157    0.59687    1.000
    C74      C        0.83013    0.64517    0.47087    1.000
    H71      H        0.82883    0.63307    0.33377    1.000
    Fe15     Fe       0.98171    0.70149    0.32247    1.000
    O57      O        0.73793    0.63217    0.24077    1.000
    O58      O        0.69933    0.65804    0.48087    1.000
    O59      O        0.92003    0.64310    0.52197    1.000
    O60      O        0.99113    0.78157    0.46967    1.000
    H72      H        0.96933    0.73937    0.47467    1.000
    C75      C        0.94823    0.79647    0.44467    1.000
    H73      H        0.95833    0.83167    0.53767    1.000
    H74      H        0.90783    0.76007    0.48567    1.000
    H75      H        0.94733    0.80667    0.29467    1.000
    C76      C        0.01350    0.42180    0.74670    1.000
    C77      C        0.00830    0.46110    0.87670    1.000
    C78      C        0.01510    0.55730    0.93020    1.000
    C79      C        0.02150    0.51830    0.80420    1.000
    H76      H        0.03360    0.52910    0.66710    1.000
    Fe16     Fe       0.96518    0.61356    0.65580    1.000
    O61      O        0.03450    0.43910    0.57410    1.000
    O62      O        0.00863    0.37463    0.81420    1.000
    O63      O        0.02357    0.61027    0.85530    1.000
    O64      O        0.88510    0.54290    0.80300    1.000
    H77      H        0.92730    0.56330    0.80800    1.000
    C80      C        0.87020    0.48510    0.77800    1.000
    H78      H        0.83500    0.46000    0.87100    1.000
    H79      H        0.90660    0.48110    0.81900    1.000
    H80      H        0.86000    0.47400    0.62800    1.000
    C81      C        0.68017    0.75513    0.08003    1.000
    C82      C        0.67497    0.79443    0.21003    1.000
    C83      C        0.68177    0.89063    0.26353    1.000
    C84      C        0.68817    0.85163    0.13753    1.000
    H81      H        0.70027    0.86243    0.00043    1.000
    Fe17     Fe       0.63185    0.94689    0.98913    1.000
    O65      O        0.70117    0.77243    0.90743    1.000
    O66      O        0.67530    0.70796    0.14753    1.000
    O67      O        0.69024    0.94360    0.18863    1.000
    O68      O        0.55177    0.87623    0.13633    1.000
    H82      H        0.59397    0.89663    0.14133    1.000
    C85      C        0.53687    0.81843    0.11133    1.000
    H83      H        0.50167    0.79333    0.20433    1.000
    H84      H        0.57327    0.81443    0.15233    1.000
    H85      H        0.52667    0.80733    0.96133    1.000
    C86      C        0.34683    0.08847    0.41337    1.000
    C87      C        0.34163    0.12777    0.54337    1.000
    C88      C        0.34843    0.22397    0.59687    1.000
    C89      C        0.35483    0.18497    0.47087    1.000
    H86      H        0.36693    0.19577    0.33377    1.000
    Fe18     Fe       0.29851    0.28023    0.32247    1.000
    O69      O        0.36783    0.10577    0.24077    1.000
    O70      O        0.34196    0.04130    0.48087    1.000
    O71      O        0.35690    0.27694    0.52197    1.000
    O72      O        0.21843    0.20957    0.46967    1.000
    H87      H        0.26063    0.22997    0.47467    1.000
    C90      C        0.20353    0.15177    0.44467    1.000
    H88      H        0.16833    0.12667    0.53767    1.000
    H89      H        0.23993    0.14777    0.48567    1.000
    H90      H        0.19333    0.14067    0.29467    1.000
