# CIF file generated by openbabel 3.1.0, see https://openbabel.org
data_I
_chemical_name_common 'image0'
_cell_length_a 16.8289
_cell_length_b 16.9625
_cell_length_c 17.0341
_cell_angle_alpha 94.812
_cell_angle_beta 95.549
_cell_angle_gamma 91.609
_space_group_name_H-M_alt 'P 1'
_space_group_name_Hall 'P 1'
loop_
    _symmetry_equiv_pos_as_xyz
    x,y,z
loop_
    _atom_site_label
    _atom_site_type_symbol
    _atom_site_fract_x
    _atom_site_fract_y
    _atom_site_fract_z
    _atom_site_occupancy
    Zn1      Zn       0.32934    0.23404    0.21228    1.000
    Zn2      Zn       0.18474    0.35198    0.22890    1.000
    Zn3      Zn       0.34782    0.36496    0.35456    1.000
    Zn4      Zn       0.22972    0.22488    0.35457    1.000
    O1       O        0.27379    0.29606    0.28625    1.000
    O2       O        0.35890    0.46897    0.31675    1.000
    O3       O        0.32541    0.37876    0.46580    1.000
    O4       O        0.23342    0.36225    0.12163    1.000
    O5       O        0.27213    0.11976    0.33289    1.000
    O6       O        0.22890    0.46401    0.27570    1.000
    O7       O        0.45349    0.31764    0.35955    1.000
    O8       O        0.74524    0.31210    0.46063    1.000
    O9       O        0.41120    0.30190    0.83753    1.000
    O10      O        0.31902    0.26530    0.10674    1.000
    O11      O        0.27250    0.25639    0.46427    1.000
    O12      O        0.11656    0.20790    0.36000    1.000
    O13      O        0.44563    0.24480    0.24263    1.000
    O14      O        0.31120    0.11931    0.21151    1.000
    O15      O        0.44393    0.75567    0.30990    1.000
    O16      O        0.11418    0.33310    0.33370    1.000
    O17      O        0.17310    0.74605    0.21490    1.000
    O18      O        0.81803    0.38847    0.30200    1.000
    O19      O        0.82359    0.12713    0.36610    1.000
    O20      O        0.35410    0.46674    0.76252    1.000
    O21      O        0.35310    0.82765    0.13773    1.000
    O22      O        0.73500    0.19730    0.20247    1.000
    C1       C        0.23810    0.70260    0.24140    1.000
    C2       C        0.61370    0.29340    0.38660    1.000
    H1       H        0.58800    0.31460    0.42900    1.000
    C3       C        0.32900    0.87520    0.20000    1.000
    C4       C        0.48200    0.27660    0.30470    1.000
    C5       C        0.29520    0.49910    0.28880    1.000
    C6       C        0.31990    0.40640    0.71220    1.000
    C7       C        0.86570    0.32850    0.32000    1.000
    C8       C        0.60840    0.23260    0.25250    1.000
    H2       H        0.57870    0.21280    0.20570    1.000
    C9       C        0.21560    0.36850    0.87340    1.000
    C10      C        0.73630    0.25620    0.33080    1.000
    C11      C        0.30100    0.58570    0.27570    1.000
    C12      C        0.57070    0.26680    0.31580    1.000
    C13      C        0.37360    0.62780    0.29560    1.000
    H3       H        0.41920    0.60200    0.31270    1.000
    C14      C        0.27960    0.33400    0.99640    1.000
    C15      C        0.34870    0.32190    0.88000    1.000
    C16      C        0.30820    0.74730    0.26200    1.000
    C17      C        0.21410    0.36240    0.95490    1.000
    H4       H        0.16960    0.37720    0.98020    1.000
    C18      C        0.34820    0.31360    0.95990    1.000
    H5       H        0.39240    0.29490    0.98880    1.000
    C19      C        0.82500    0.25870    0.33550    1.000
    C20      C        0.86910    0.19340    0.35320    1.000
    C21      C        0.30970    0.83450    0.26380    1.000
    C22      C        0.94860    0.33240    0.32440    1.000
    H6       H        0.97580    0.37870    0.31520    1.000
    C23      C        0.27670    0.32020    0.08160    1.000
    C24      C        0.28170    0.34870    0.83560    1.000
    C25      C        0.08000    0.41020    0.86050    1.000
    H7       H        0.04050    0.42570    0.82080    1.000
    H8       H        0.09070    0.45270    0.90140    1.000
    H9       H        0.06050    0.36420    0.88280    1.000
    C26      C        0.28080    0.34720    0.74820    1.000
    C27      C        0.85590    0.45670    0.27710    1.000
    H10      H        0.81680    0.49570    0.26690    1.000
    H11      H        0.88050    0.44250    0.22960    1.000
    H12      H        0.89590    0.47810    0.31790    1.000
    C28      C        0.69110    0.22880    0.26070    1.000
    C29      C        0.37660    0.70860    0.28920    1.000
    C30      C        0.23280    0.62210    0.24800    1.000
    H13      H        0.18490    0.59330    0.23420    1.000
    C31      C        0.09980    0.70450    0.19270    1.000
    H14      H        0.06000    0.74090    0.17640    1.000
    H15      H        0.08350    0.67880    0.23690    1.000
    H16      H        0.10570    0.66550    0.14960    1.000
    C32      C        0.69680    0.28790    0.39330    1.000
    C33      C        0.51430    0.71910    0.34060    1.000
    H17      H        0.55690    0.75830    0.35270    1.000
    H18      H        0.52920    0.67930    0.30190    1.000
    H19      H        0.50400    0.69510    0.38790    1.000
    C34      C        0.70710    0.34180    0.52900    1.000
    H20      H        0.74710    0.35760    0.57190    1.000
    H21      H        0.67260    0.30100    0.54440    1.000
    H22      H        0.67620    0.38650    0.51620    1.000
    C35      C        0.86610    0.05790    0.38050    1.000
    H23      H        0.82920    0.01610    0.38950    1.000
    H24      H        0.90390    0.06860    0.42630    1.000
    H25      H        0.89380    0.04200    0.33540    1.000
    C36      C        0.38720    0.53330    0.72820    1.000
    H26      H        0.40970    0.57160    0.76960    1.000
    H27      H        0.34580    0.55680    0.69610    1.000
    H28      H        0.42820    0.51580    0.69600    1.000
    C37      C        0.37670    0.86700    0.07250    1.000
    H29      H        0.39170    0.82850    0.03250    1.000
    H30      H        0.42130    0.90270    0.09020    1.000
    H31      H        0.33290    0.89620    0.05100    1.000
    C38      C        0.47930    0.26960    0.87950    1.000
    H32      H        0.51870    0.25750    0.84360    1.000
    H33      H        0.46300    0.22220    0.90160    1.000
    H34      H        0.50160    0.30760    0.92130    1.000
    C39      C        0.69050    0.16810    0.12960    1.000
    H35      H        0.72640    0.14830    0.09280    1.000
    H36      H        0.66100    0.21020    0.10790    1.000
    H37      H        0.65400    0.12620    0.13910    1.000
    O23      O        0.15212    0.39220    0.82515    1.000
    C40      C        0.98990    0.26590    0.34280    1.000
    C41      C        0.07910    0.26920    0.34530    1.000
    C42      C        0.95170    0.19640    0.35760    1.000
    H38      H        0.98080    0.15270    0.37030    1.000
    C43      C        0.32340    0.39960    0.62990    1.000
    H39      H        0.34870    0.43920    0.60570    1.000
    C44      C        0.28930    0.33400    0.58550    1.000
    C45      C        0.29600    0.32270    0.49830    1.000
    C46      C        0.24830    0.27560    0.61940    1.000
    H40      H        0.22420    0.23210    0.58830    1.000
    C47      C        0.24400    0.28320    0.70100    1.000
    O24      O        0.20590    0.22890    0.74016    1.000
    C48      C        0.16110    0.16720    0.69140    1.000
    H41      H        0.13550    0.13300    0.72420    1.000
    H42      H        0.19640    0.13720    0.66050    1.000
    H43      H        0.12130    0.18990    0.65670    1.000
    C49      C        0.28400    0.87810    0.33000    1.000
    O25      O        0.26630    0.83396    0.38940    1.000
    C50      C        0.28050    0.95940    0.33310    1.000
    H44      H        0.26520    0.98820    0.37770    1.000
    C51      C        0.32460    0.95630    0.20190    1.000
    H45      H        0.33790    0.98290    0.15910    1.000
    C52      C        0.30040    0.99740    0.26760    1.000
    C53      C        0.29310    0.08610    0.27160    1.000
    C54      C        0.23650    0.87500    0.45700    1.000
    H46      H        0.22620    0.83800    0.49480    1.000
    H47      H        0.18790    0.90010    0.44060    1.000
    H48      H        0.27550    0.91450    0.48080    1.000
    Zn5      Zn       0.67066    0.76596    0.78772    1.000
    Zn6      Zn       0.81526    0.64802    0.77110    1.000
    Zn7      Zn       0.65218    0.63504    0.64544    1.000
    Zn8      Zn       0.77028    0.77512    0.64543    1.000
    O26      O        0.72621    0.70394    0.71375    1.000
    O27      O        0.64110    0.53103    0.68325    1.000
    O28      O        0.67459    0.62124    0.53420    1.000
    O29      O        0.76658    0.63775    0.87837    1.000
    O30      O        0.72787    0.88024    0.66711    1.000
    O31      O        0.77110    0.53599    0.72430    1.000
    O32      O        0.54651    0.68236    0.64045    1.000
    O33      O        0.25476    0.68790    0.53937    1.000
    O34      O        0.58880    0.69810    0.16247    1.000
    O35      O        0.68098    0.73470    0.89326    1.000
    O36      O        0.72750    0.74361    0.53573    1.000
    O37      O        0.88344    0.79210    0.64000    1.000
    O38      O        0.55437    0.75520    0.75737    1.000
    O39      O        0.68880    0.88069    0.78849    1.000
    O40      O        0.55607    0.24433    0.69010    1.000
    O41      O        0.88582    0.66690    0.66630    1.000
    O42      O        0.82690    0.25395    0.78510    1.000
    O43      O        0.18197    0.61153    0.69800    1.000
    O44      O        0.17641    0.87287    0.63390    1.000
    O45      O        0.64590    0.53326    0.23748    1.000
    O46      O        0.64690    0.17235    0.86227    1.000
    O47      O        0.26500    0.80270    0.79753    1.000
    C55      C        0.76190    0.29740    0.75860    1.000
    C56      C        0.38630    0.70660    0.61340    1.000
    H49      H        0.41200    0.68540    0.57100    1.000
    C57      C        0.67100    0.12480    0.80000    1.000
    C58      C        0.51800    0.72340    0.69530    1.000
    C59      C        0.70480    0.50090    0.71120    1.000
    C60      C        0.68010    0.59360    0.28780    1.000
    C61      C        0.13430    0.67150    0.68000    1.000
    C62      C        0.39160    0.76740    0.74750    1.000
    H50      H        0.42130    0.78720    0.79430    1.000
    C63      C        0.78440    0.63150    0.12660    1.000
    C64      C        0.26370    0.74380    0.66920    1.000
    C65      C        0.69900    0.41430    0.72430    1.000
    C66      C        0.42930    0.73320    0.68420    1.000
    C67      C        0.62640    0.37220    0.70440    1.000
    H51      H        0.58080    0.39800    0.68730    1.000
    C68      C        0.72040    0.66600    0.00360    1.000
    C69      C        0.65130    0.67810    0.12000    1.000
    C70      C        0.69180    0.25270    0.73800    1.000
    C71      C        0.78590    0.63760    0.04510    1.000
    H52      H        0.83040    0.62280    0.01980    1.000
    C72      C        0.65180    0.68640    0.04010    1.000
    H53      H        0.60760    0.70510    0.01120    1.000
    C73      C        0.17500    0.74130    0.66450    1.000
    C74      C        0.13090    0.80660    0.64680    1.000
    C75      C        0.69030    0.16550    0.73620    1.000
    C76      C        0.05140    0.66760    0.67560    1.000
    H54      H        0.02420    0.62130    0.68480    1.000
    C77      C        0.72330    0.67980    0.91840    1.000
    C78      C        0.71830    0.65130    0.16440    1.000
    C79      C        0.92000    0.58980    0.13950    1.000
    H55      H        0.95950    0.57430    0.17920    1.000
    H56      H        0.90930    0.54730    0.09860    1.000
    H57      H        0.93950    0.63580    0.11720    1.000
    C80      C        0.71920    0.65280    0.25180    1.000
    C81      C        0.14410    0.54330    0.72290    1.000
    H58      H        0.18320    0.50430    0.73310    1.000
    H59      H        0.11950    0.55750    0.77040    1.000
    H60      H        0.10410    0.52190    0.68210    1.000
    C82      C        0.30890    0.77120    0.73930    1.000
    C83      C        0.62340    0.29140    0.71080    1.000
    C84      C        0.76720    0.37790    0.75200    1.000
    H61      H        0.81510    0.40670    0.76580    1.000
    C85      C        0.90020    0.29550    0.80730    1.000
    H62      H        0.94000    0.25910    0.82360    1.000
    H63      H        0.91650    0.32120    0.76310    1.000
    H64      H        0.89430    0.33450    0.85040    1.000
    C86      C        0.30320    0.71210    0.60670    1.000
    C87      C        0.48570    0.28090    0.65940    1.000
    H65      H        0.44310    0.24170    0.64730    1.000
    H66      H        0.47080    0.32070    0.69810    1.000
    H67      H        0.49600    0.30490    0.61210    1.000
    C88      C        0.29290    0.65820    0.47100    1.000
    H68      H        0.25290    0.64240    0.42810    1.000
    H69      H        0.32740    0.69900    0.45560    1.000
    H70      H        0.32380    0.61350    0.48380    1.000
    C89      C        0.13390    0.94210    0.61950    1.000
    H71      H        0.17080    0.98390    0.61050    1.000
    H72      H        0.09610    0.93140    0.57370    1.000
    H73      H        0.10620    0.95800    0.66460    1.000
    C90      C        0.61280    0.46670    0.27180    1.000
    H74      H        0.59030    0.42840    0.23040    1.000
    H75      H        0.65420    0.44320    0.30390    1.000
    H76      H        0.57180    0.48420    0.30400    1.000
    C91      C        0.62330    0.13300    0.92750    1.000
    H77      H        0.60830    0.17150    0.96750    1.000
    H78      H        0.57870    0.09730    0.90980    1.000
    H79      H        0.66710    0.10380    0.94900    1.000
    C92      C        0.52070    0.73040    0.12050    1.000
    H80      H        0.48130    0.74250    0.15640    1.000
    H81      H        0.53700    0.77780    0.09840    1.000
    H82      H        0.49840    0.69240    0.07870    1.000
    C93      C        0.30950    0.83190    0.87040    1.000
    H83      H        0.27360    0.85170    0.90720    1.000
    H84      H        0.33900    0.78980    0.89210    1.000
    H85      H        0.34600    0.87380    0.86090    1.000
    O48      O        0.84788    0.60780    0.17485    1.000
    C94      C        0.01010    0.73410    0.65720    1.000
    C95      C        0.92090    0.73080    0.65470    1.000
    C96      C        0.04830    0.80360    0.64240    1.000
    H86      H        0.01920    0.84730    0.62970    1.000
    C97      C        0.67660    0.60040    0.37010    1.000
    H87      H        0.65130    0.56080    0.39430    1.000
    C98      C        0.71070    0.66600    0.41450    1.000
    C99      C        0.70400    0.67730    0.50170    1.000
    C100     C        0.75170    0.72440    0.38060    1.000
    H88      H        0.77580    0.76790    0.41170    1.000
    C101     C        0.75600    0.71680    0.29900    1.000
    O49      O        0.79410    0.77110    0.25984    1.000
    C102     C        0.83890    0.83280    0.30860    1.000
    H89      H        0.86450    0.86700    0.27580    1.000
    H90      H        0.80360    0.86280    0.33950    1.000
    H91      H        0.87870    0.81010    0.34330    1.000
    C103     C        0.71600    0.12190    0.67000    1.000
    O50      O        0.73370    0.16604    0.61060    1.000
    C104     C        0.71950    0.04060    0.66690    1.000
    H92      H        0.73480    0.01180    0.62230    1.000
    C105     C        0.67540    0.04370    0.79810    1.000
    H93      H        0.66210    0.01710    0.84090    1.000
    C106     C        0.69960    0.00260    0.73240    1.000
    C107     C        0.70690    0.91390    0.72840    1.000
    C108     C        0.76350    0.12500    0.54300    1.000
    H94      H        0.77380    0.16200    0.50520    1.000
    H95      H        0.81210    0.09990    0.55940    1.000
    H96      H        0.72450    0.08550    0.51920    1.000
