# CIF file generated by openbabel 3.1.0, see https://openbabel.org
data_I
_chemical_name_common 'ic700893w-file001_clean'
_cell_length_a 6.21
_cell_length_b 6.99
_cell_length_c 18.7585
_cell_angle_alpha 100.738
_cell_angle_beta 96.8965
_cell_angle_gamma 90
_space_group_name_H-M_alt 'P 1'
_space_group_name_Hall 'P 1'
loop_
    _symmetry_equiv_pos_as_xyz
    x,y,z
loop_
    _atom_site_label
    _atom_site_type_symbol
    _atom_site_fract_x
    _atom_site_fract_y
    _atom_site_fract_z
    _atom_site_occupancy
    Eu1      Eu       0.52238    0.90913    0.44002    1.000
    Eu2      Eu       0.47762    0.46911    0.55998    1.000
    Cu1      Cu       0.00000    0.68980    0.00000    1.000
    H1       H        0.98220    0.24150    0.17200    1.000
    H2       H        0.17550    0.67380    0.14760    1.000
    H3       H        0.61660    0.83270    0.06220    1.000
    H4       H        0.93040    0.47650    0.73780    1.000
    H5       H        0.36240    0.17850    0.82200    1.000
    H6       H        0.80840    0.90400    0.72320    1.000
    H7       H        0.82450    0.52620    0.85240    1.000
    H8       H        0.06960    0.73870    0.26220    1.000
    H9       H        0.19160    0.18080    0.27680    1.000
    H10      H        0.38340    0.77050    0.93780    1.000
    H11      H        0.50480    0.72100    0.82480    1.000
    H12      H        0.49520    0.89620    0.17520    1.000
    H13      H        0.63760    0.35650    0.17800    1.000
    H14      H        0.50970    0.44080    0.28960    1.000
    H15      H        0.49030    0.15120    0.71040    1.000
    H16      H        0.01780    0.06950    0.82800    1.000
    C1       C        0.76740    0.81130    0.23060    1.000
    C2       C        0.97240    0.75315    0.22190    1.000
    C3       C        0.68550    0.84908    0.30416    1.000
    C4       C        0.33360    0.96785    0.57970    1.000
    C5       C        0.23260    0.58070    0.76940    1.000
    C6       C        0.76950    0.36036    0.35072    1.000
    C7       C        0.13170    0.25307    0.41394    1.000
    C8       C        0.27610    0.11955    0.77950    1.000
    C9       C        0.66640    0.38815    0.42030    1.000
    C10      C        0.96470    0.56270    0.84700    1.000
    C11      C        0.92760    0.26840    0.21680    1.000
    C12      C        0.86830    0.83913    0.58606    1.000
    C13      C        0.07240    0.05160    0.78320    1.000
    C14      C        0.23050    0.00964    0.64928    1.000
    C15      C        0.02760    0.53125    0.77810    1.000
    C16      C        0.72390    0.34005    0.22050    1.000
    C17      C        0.29340    0.70551    0.89722    1.000
    C18      C        0.02450    0.93218    0.65216    1.000
    C19      C        0.97550    0.28002    0.34784    1.000
    C20      C        0.63290    0.84713    0.17026    1.000
    C21      C        0.94510    0.95395    0.72010    1.000
    C22      C        0.31450    0.54492    0.69584    1.000
    C23      C        0.64680    0.38825    0.28730    1.000
    C24      C        0.70660    0.80829    0.10278    1.000
    C25      C        0.05490    0.23385    0.27990    1.000
    C26      C        0.03530    0.71570    0.15300    1.000
    C27      C        0.35320    0.10095    0.71270    1.000
    C28      C        0.36710    0.67687    0.82974    1.000
    N1       N        0.90330    0.73671    0.09342    1.000
    N2       N        0.09670    0.64329    0.90658    1.000
    O1       O        0.18990    0.48821    0.63802    1.000
    O2       O        0.51120    0.59104    0.69268    1.000
    O3       O        0.22300    0.09620    0.40960    1.000
    O4       O        0.48880    0.89836    0.30732    1.000
    O5       O        0.65020    0.25877    0.45474    1.000
    O6       O        0.34980    0.80403    0.54526    1.000
    O7       O        0.77700    0.68660    0.59040    1.000
    O8       O        0.40900    0.11873    0.55786    1.000
    O9       O        0.81010    0.85019    0.36198    1.000
    O10      O        0.83640    0.93428    0.53316    1.000
    O11      O        0.59100    0.56087    0.44214    1.000
    O12      O        0.16360    0.40112    0.46684    1.000
