# CIF file generated by openbabel 3.1.0, see https://openbabel.org
data_I
_chemical_name_common 'HAJLIO_clean'
_cell_length_a 10.9463
_cell_length_b 15.0463
_cell_length_c 15.0463
_cell_angle_alpha 65.6827
_cell_angle_beta 75.9658
_cell_angle_gamma 104.034
_space_group_name_H-M_alt 'P 1'
_space_group_name_Hall 'P 1'
loop_
    _symmetry_equiv_pos_as_xyz
    x,y,z
loop_
    _atom_site_label
    _atom_site_type_symbol
    _atom_site_fract_x
    _atom_site_fract_y
    _atom_site_fract_z
    _atom_site_occupancy
    Fe1      Fe       0.50000    0.50000    0.50000    1.000
    H1       H        0.22950    0.34110    0.53640    1.000
    H2       H        0.47580    0.68890    0.29470    1.000
    H3       H        0.34690    0.70900    0.27160    1.000
    H4       H        0.44310    0.67830    0.20070    1.000
    H5       H        0.03100    0.23750    0.53240    1.000
    H6       H        0.04170    0.27250    0.41410    1.000
    H7       H        0.94980    0.30700    0.48340    1.000
    H8       H        0.02680    0.71520    0.23700    1.000
    H9       H        0.16400    0.71820    0.25770    1.000
    H10      H        0.01910    0.63230    0.34940    1.000
    H11      H        0.12860    0.36920    0.14660    1.000
    H12      H        0.11870    0.32490    0.26580    1.000
    H13      H        0.25910    0.41240    0.16970    1.000
    H14      H        0.99160    0.63160    0.13390    1.000
    H15      H        0.77050    0.65890    0.46360    1.000
    H16      H        0.52420    0.31110    0.70530    1.000
    H17      H        0.65310    0.29100    0.72840    1.000
    H18      H        0.55690    0.32170    0.79930    1.000
    H19      H        0.96900    0.76250    0.46760    1.000
    H20      H        0.95830    0.72750    0.58590    1.000
    H21      H        0.05020    0.69300    0.51660    1.000
    H22      H        0.97320    0.28480    0.76300    1.000
    H23      H        0.83600    0.28180    0.74230    1.000
    H24      H        0.98090    0.36770    0.65060    1.000
    H25      H        0.87140    0.63080    0.85340    1.000
    H26      H        0.88130    0.67510    0.73420    1.000
    H27      H        0.74090    0.58760    0.83030    1.000
    H28      H        0.00840    0.36840    0.86610    1.000
    C1       C        0.27501    0.34864    0.73831    1.000
    C2       C        0.31539    0.55226    0.34679    1.000
    C3       C        0.19975    0.49150    0.34075    1.000
    C4       C        0.15280    0.39172    0.42802    1.000
    C5       C        0.40274    0.66695    0.27203    1.000
    C6       C        0.03371    0.29389    0.46786    1.000
    C7       C        0.08337    0.59690    0.23399    1.000
    C8       C        0.13992    0.52154    0.26018    1.000
    C9       C        0.11615    0.47259    0.19974    1.000
    C10      C        0.07236    0.67203    0.27285    1.000
    C11      C        0.15934    0.38747    0.19505    1.000
    C12      C        0.72499    0.65136    0.26169    1.000
    C13      C        0.68461    0.44774    0.65321    1.000
    C14      C        0.80025    0.50850    0.65925    1.000
    C15      C        0.84720    0.60828    0.57198    1.000
    C16      C        0.59726    0.33305    0.72797    1.000
    C17      C        0.96629    0.70611    0.53214    1.000
    C18      C        0.91663    0.40310    0.76601    1.000
    C19      C        0.86008    0.47846    0.73982    1.000
    C20      C        0.88385    0.52741    0.80026    1.000
    C21      C        0.92764    0.32797    0.72715    1.000
    C22      C        0.84066    0.61253    0.80495    1.000
    S1       S        0.18200    0.28038    0.86505    1.000
    S2       S        0.81800    0.71962    0.13495    1.000
    N1       N        0.34346    0.39652    0.64813    1.000
    N2       N        0.33886    0.49328    0.43100    1.000
    N3       N        0.23805    0.39567    0.47868    1.000
    N4       N        0.04883    0.51429    0.14076    1.000
    N5       N        0.03200    0.59050    0.16300    1.000
    N6       N        0.65654    0.60348    0.35187    1.000
    N7       N        0.66114    0.50672    0.56900    1.000
    N8       N        0.76195    0.60433    0.52132    1.000
    N9       N        0.95117    0.48571    0.85924    1.000
    N10      N        0.96800    0.40950    0.83700    1.000
    Fe2      Fe       0.00000    0.50000    0.00000    1.000
    H29      H        0.76590    0.53640    0.12250    1.000
    H30      H        0.77050    0.29470    0.01640    1.000
    H31      H        0.61850    0.27160    0.01940    1.000
    H32      H        0.64380    0.20070    0.12100    1.000
    H33      H        0.56340    0.53240    0.23010    1.000
    H34      H        0.45580    0.41410    0.31340    1.000
    H35      H        0.43320    0.48340    0.20960    1.000
    H36      H        0.26380    0.23700    0.04780    1.000
    H37      H        0.42170    0.25770    0.02410    1.000
    H38      H        0.36850    0.34940    0.01830    1.000
    H39      H        0.27520    0.14660    0.48420    1.000
    H40      H        0.38450    0.26580    0.40930    1.000
    H41      H        0.42880    0.16970    0.41790    1.000
    H42      H        0.12550    0.13390    0.23450    1.000
    H43      H        0.23410    0.46360    0.87750    1.000
    H44      H        0.22950    0.70530    0.98360    1.000
    H45      H        0.38150    0.72840    0.98060    1.000
    H46      H        0.35620    0.79930    0.87900    1.000
    H47      H        0.43660    0.46760    0.76990    1.000
    H48      H        0.54420    0.58590    0.68660    1.000
    H49      H        0.56680    0.51660    0.79040    1.000
    H50      H        0.73620    0.76300    0.95220    1.000
    H51      H        0.57830    0.74230    0.97590    1.000
    H52      H        0.63150    0.65060    0.98170    1.000
    H53      H        0.72480    0.85340    0.51580    1.000
    H54      H        0.61550    0.73420    0.59070    1.000
    H55      H        0.57120    0.83030    0.58210    1.000
    H56      H        0.87450    0.86610    0.76550    1.000
    C23      C        0.01332    0.73831    0.91305    1.000
    C24      C        0.66218    0.34679    0.10095    1.000
    C25      C        0.54050    0.34075    0.16775    1.000
    C26      C        0.58082    0.42802    0.18026    1.000
    C27      C        0.67477    0.27203    0.06102    1.000
    C28      C        0.50157    0.46786    0.23825    1.000
    C29      C        0.31736    0.23399    0.16911    1.000
    C30      C        0.40010    0.26018    0.21828    1.000
    C31      C        0.31589    0.19974    0.32767    1.000
    C32      C        0.34521    0.27285    0.05512    1.000
    C33      C        0.35439    0.19505    0.41748    1.000
    C34      C        0.98668    0.26169    0.08695    1.000
    C35      C        0.33782    0.65321    0.89905    1.000
    C36      C        0.45950    0.65925    0.83225    1.000
    C37      C        0.41918    0.57198    0.81974    1.000
    C38      C        0.32523    0.72797    0.93898    1.000
    C39      C        0.49843    0.53214    0.76175    1.000
    C40      C        0.68264    0.76601    0.83089    1.000
    C41      C        0.59990    0.73982    0.78172    1.000
    C42      C        0.68411    0.80026    0.67233    1.000
    C43      C        0.65479    0.72715    0.94488    1.000
    C44      C        0.64561    0.80495    0.58252    1.000
    S3       S        0.04705    0.86505    0.85457    1.000
    S4       S        0.95295    0.13495    0.14543    1.000
    N11      N        0.99159    0.64813    0.95535    1.000
    N12      N        0.76986    0.43100    0.07572    1.000
    N13      N        0.71673    0.47868    0.12565    1.000
    N14      N        0.18959    0.14076    0.34495    1.000
    N15      N        0.19500    0.16300    0.24650    1.000
    N16      N        0.00841    0.35187    0.04465    1.000
    N17      N        0.23014    0.56900    0.92428    1.000
    N18      N        0.28327    0.52132    0.87435    1.000
    N19      N        0.81041    0.85924    0.65505    1.000
    N20      N        0.80500    0.83700    0.75350    1.000
    Fe3      Fe       0.00000    0.00000    0.50000    1.000
    H57      H        0.88840    0.12250    0.34110    1.000
    H58      H        0.78690    0.01640    0.68890    1.000
    H59      H        0.63790    0.01940    0.70900    1.000
    H60      H        0.76480    0.12100    0.67830    1.000
    H61      H        0.79350    0.23010    0.23750    1.000
    H62      H        0.76920    0.31340    0.27250    1.000
    H63      H        0.64280    0.20960    0.30700    1.000
    H64      H        0.31160    0.04780    0.71520    1.000
    H65      H        0.44580    0.02410    0.71820    1.000
    H66      H        0.38680    0.01830    0.63230    1.000
    H67      H        0.75940    0.48420    0.36920    1.000
    H68      H        0.79380    0.40930    0.32490    1.000
    H69      H        0.84670    0.41790    0.41240    1.000
    H70      H        0.36000    0.23450    0.63160    1.000
    H71      H        0.11160    0.87750    0.65890    1.000
    H72      H        0.21310    0.98360    0.31110    1.000
    H73      H        0.36210    0.98060    0.29100    1.000
    H74      H        0.23520    0.87900    0.32170    1.000
    H75      H        0.20650    0.76990    0.76250    1.000
    H76      H        0.23080    0.68660    0.72750    1.000
    H77      H        0.35720    0.79040    0.69300    1.000
    H78      H        0.68840    0.95220    0.28480    1.000
    H79      H        0.55420    0.97590    0.28180    1.000
    H80      H        0.61320    0.98170    0.36770    1.000
    H81      H        0.24060    0.51580    0.63080    1.000
    H82      H        0.20620    0.59070    0.67510    1.000
    H83      H        0.15330    0.58210    0.58760    1.000
    H84      H        0.64000    0.76550    0.36840    1.000
    C45      C        0.92637    0.91305    0.34864    1.000
    C46      C        0.76313    0.10095    0.55226    1.000
    C47      C        0.70825    0.16775    0.49150    1.000
    C48      C        0.76108    0.18026    0.39172    1.000
    C49      C        0.73579    0.06102    0.66695    1.000
    C50      C        0.73982    0.23825    0.29389    1.000
    C51      C        0.48647    0.16911    0.59690    1.000
    C52      C        0.61838    0.21828    0.52154    1.000
    C53      C        0.64356    0.32767    0.47259    1.000
    C54      C        0.40033    0.05512    0.67203    1.000
    C55      C        0.77187    0.41748    0.38747    1.000
    C56      C        0.07363    0.08695    0.65136    1.000
    C57      C        0.23687    0.89905    0.44774    1.000
    C58      C        0.29175    0.83225    0.50850    1.000
    C59      C        0.23892    0.81974    0.60828    1.000
    C60      C        0.26421    0.93898    0.33305    1.000
    C61      C        0.26018    0.76175    0.70611    1.000
    C62      C        0.51353    0.83089    0.40310    1.000
    C63      C        0.38162    0.78172    0.47846    1.000
    C64      C        0.35644    0.67233    0.52741    1.000
    C65      C        0.59967    0.94488    0.32797    1.000
    C66      C        0.22813    0.58252    0.61253    1.000
    S5       S        0.90162    0.85457    0.28038    1.000
    S6       S        0.09838    0.14543    0.71962    1.000
    N21      N        0.94694    0.95535    0.39652    1.000
    N22      N        0.84558    0.07572    0.49328    1.000
    N23      N        0.84238    0.12565    0.39567    1.000
    N24      N        0.53454    0.34495    0.51429    1.000
    N25      N        0.44150    0.24650    0.59050    1.000
    N26      N        0.05306    0.04465    0.60348    1.000
    N27      N        0.15442    0.92428    0.50672    1.000
    N28      N        0.15762    0.87435    0.60433    1.000
    N29      N        0.46546    0.65505    0.48571    1.000
    N30      N        0.55850    0.75350    0.40950    1.000
