# CIF file generated by openbabel 3.1.0, see https://openbabel.org
data_I
_chemical_name_common 'HORCOH_clean'
_cell_length_a 6.5175
_cell_length_b 9.5054
_cell_length_c 17.0878
_cell_angle_alpha 90
_cell_angle_beta 90
_cell_angle_gamma 90
_space_group_name_H-M_alt 'P 1'
_space_group_name_Hall 'P 1'
loop_
    _symmetry_equiv_pos_as_xyz
    x,y,z
loop_
    _atom_site_label
    _atom_site_type_symbol
    _atom_site_fract_x
    _atom_site_fract_y
    _atom_site_fract_z
    _atom_site_occupancy
    Yb1      Yb       0.75000    0.78080    0.62088    1.000
    Yb2      Yb       0.25000    0.71920    0.12088    1.000
    Yb3      Yb       0.25000    0.21920    0.37912    1.000
    Yb4      Yb       0.75000    0.28080    0.87912    1.000
    H1       H        0.75000    0.22740    0.65210    1.000
    H2       H        0.25000    0.27260    0.15210    1.000
    H3       H        0.25000    0.77260    0.34790    1.000
    H4       H        0.75000    0.72740    0.84790    1.000
    C1       C        0.75000    0.63030    0.45190    1.000
    C2       C        0.75000    0.50190    0.50480    1.000
    C3       C        0.75000    0.35930    0.48380    1.000
    C4       C        0.75000    0.30770    0.40000    1.000
    C5       C        0.75000    0.29620    0.61340    1.000
    C6       C        0.75000    0.43590    0.63470    1.000
    C7       C        0.75000    0.48960    0.71710    1.000
    C8       C        0.25000    0.86970    0.95190    1.000
    C9       C        0.25000    0.99810    0.00480    1.000
    C10      C        0.25000    0.14070    0.98380    1.000
    C11      C        0.25000    0.19230    0.90000    1.000
    C12      C        0.25000    0.20380    0.11340    1.000
    C13      C        0.25000    0.06410    0.13470    1.000
    C14      C        0.25000    0.01040    0.21710    1.000
    C15      C        0.25000    0.36970    0.54810    1.000
    C16      C        0.25000    0.49810    0.49520    1.000
    C17      C        0.25000    0.64070    0.51620    1.000
    C18      C        0.25000    0.69230    0.60000    1.000
    C19      C        0.25000    0.70380    0.38660    1.000
    C20      C        0.25000    0.56410    0.36530    1.000
    C21      C        0.25000    0.51040    0.28290    1.000
    C22      C        0.75000    0.13030    0.04810    1.000
    C23      C        0.75000    0.00190    0.99520    1.000
    C24      C        0.75000    0.85930    0.01620    1.000
    C25      C        0.75000    0.80770    0.10000    1.000
    C26      C        0.75000    0.79620    0.88660    1.000
    C27      C        0.75000    0.93590    0.86530    1.000
    C28      C        0.75000    0.98960    0.78290    1.000
    N1       N        0.75000    0.53540    0.58080    1.000
    N2       N        0.75000    0.25690    0.53760    1.000
    N3       N        0.25000    0.96460    0.08080    1.000
    N4       N        0.25000    0.24310    0.03760    1.000
    N5       N        0.25000    0.46460    0.41920    1.000
    N6       N        0.25000    0.74310    0.46240    1.000
    N7       N        0.75000    0.03540    0.91920    1.000
    N8       N        0.75000    0.75690    0.96240    1.000
    O1       O        0.91950    0.28920    0.36752    1.000
    O2       O        0.08050    0.21080    0.86752    1.000
    O3       O        0.41950    0.71080    0.63248    1.000
    O4       O        0.58050    0.78920    0.13248    1.000
    O5       O        0.08050    0.71080    0.63248    1.000
    O6       O        0.91950    0.78920    0.13248    1.000
    O7       O        0.58050    0.28920    0.36752    1.000
    O8       O        0.41950    0.21080    0.86752    1.000
    O9       O        0.75000    0.74780    0.48830    1.000
    O10      O        0.75000    0.61320    0.38071    1.000
    O11      O        0.75000    0.40240    0.77070    1.000
    O12      O        0.75000    0.61950    0.72540    1.000
    O13      O        0.25000    0.75220    0.98830    1.000
    O14      O        0.25000    0.88680    0.88071    1.000
    O15      O        0.25000    0.09760    0.27070    1.000
    O16      O        0.25000    0.88050    0.22540    1.000
    O17      O        0.25000    0.25220    0.51170    1.000
    O18      O        0.25000    0.38680    0.61929    1.000
    O19      O        0.25000    0.59760    0.22930    1.000
    O20      O        0.25000    0.38050    0.27460    1.000
    O21      O        0.75000    0.24780    0.01170    1.000
    O22      O        0.75000    0.11320    0.11929    1.000
    O23      O        0.75000    0.90240    0.72930    1.000
    O24      O        0.75000    0.11950    0.77460    1.000
