# CIF file generated by openbabel 3.1.0, see https://openbabel.org
data_I
_chemical_name_common 'image0'
_cell_length_a 11.4884
_cell_length_b 13.6513
_cell_length_c 12.7991
_cell_angle_alpha 90
_cell_angle_beta 100.92
_cell_angle_gamma 90
_space_group_name_H-M_alt 'P 1'
_space_group_name_Hall 'P 1'
loop_
    _symmetry_equiv_pos_as_xyz
    x,y,z
loop_
    _atom_site_label
    _atom_site_type_symbol
    _atom_site_fract_x
    _atom_site_fract_y
    _atom_site_fract_z
    _atom_site_occupancy
    C1       C        0.96740    0.99470    0.69750    1.000
    C2       C        0.16020    0.92080    0.66110    1.000
    C3       C        0.21560    0.09570    0.59720    1.000
    C4       C        0.02620    0.16510    0.63910    1.000
    C5       C        0.15010    0.96540    0.86900    1.000
    C6       C        0.32230    0.02720    0.78240    1.000
    C7       C        0.22550    0.19780    0.79250    1.000
    C8       C        0.03140    0.12760    0.83860    1.000
    C9       C        0.46710    0.95240    0.50150    1.000
    Co1      Co       0.69825    0.91562    0.62231    1.000
    Co2      Co       0.84265    0.21534    0.96639    1.000
    N1       N        0.87360    0.96490    0.67880    1.000
    N2       N        0.17110    0.85010    0.62100    1.000
    N3       N        0.25420    0.11220    0.52680    1.000
    N4       N        0.96850    0.21700    0.58240    1.000
    N5       N        0.15650    0.91250    0.94230    1.000
    N6       N        0.42350    0.00860    0.80030    1.000
    N7       N        0.26630    0.27270    0.82230    1.000
    N8       N        0.97400    0.16070    0.89210    1.000
    O1       O        0.36590    0.94610    0.44470    1.000
    O2       O        0.51830    0.88430    0.55760    1.000
    W1       W        0.13932    0.06166    0.73581    1.000
    C10      C        0.03260    0.49470    0.80250    1.000
    C11      C        0.83980    0.42080    0.83890    1.000
    C12      C        0.78440    0.59570    0.90280    1.000
    C13      C        0.97380    0.66510    0.86090    1.000
    C14      C        0.84990    0.46540    0.63100    1.000
    C15      C        0.67770    0.52720    0.71760    1.000
    C16      C        0.77450    0.69780    0.70750    1.000
    C17      C        0.96860    0.62760    0.66140    1.000
    C18      C        0.53290    0.45240    0.99850    1.000
    Co3      Co       0.30175    0.41562    0.87769    1.000
    Co4      Co       0.15735    0.71534    0.53361    1.000
    N9       N        0.12640    0.46490    0.82120    1.000
    N10      N        0.82890    0.35010    0.87900    1.000
    N11      N        0.74580    0.61220    0.97320    1.000
    N12      N        0.03150    0.71700    0.91760    1.000
    N13      N        0.84350    0.41250    0.55770    1.000
    N14      N        0.57650    0.50860    0.69970    1.000
    N15      N        0.73370    0.77270    0.67770    1.000
    N16      N        0.02600    0.66070    0.60790    1.000
    O3       O        0.63410    0.44610    0.05530    1.000
    O4       O        0.48170    0.38430    0.94240    1.000
    W2       W        0.86068    0.56166    0.76419    1.000
    C19      C        0.03260    0.00530    0.30250    1.000
    C20      C        0.83980    0.07920    0.33890    1.000
    C21      C        0.78440    0.90430    0.40280    1.000
    C22      C        0.97380    0.83490    0.36090    1.000
    C23      C        0.84990    0.03460    0.13100    1.000
    C24      C        0.67770    0.97280    0.21760    1.000
    C25      C        0.77450    0.80220    0.20750    1.000
    C26      C        0.96860    0.87240    0.16140    1.000
    C27      C        0.53290    0.04760    0.49850    1.000
    Co5      Co       0.30175    0.08438    0.37769    1.000
    Co6      Co       0.15735    0.78466    0.03361    1.000
    N17      N        0.12640    0.03510    0.32120    1.000
    N18      N        0.82890    0.14990    0.37900    1.000
    N19      N        0.74580    0.88780    0.47320    1.000
    N20      N        0.03150    0.78300    0.41760    1.000
    N21      N        0.84350    0.08750    0.05770    1.000
    N22      N        0.57650    0.99140    0.19970    1.000
    N23      N        0.73370    0.72730    0.17770    1.000
    N24      N        0.02600    0.83930    0.10790    1.000
    O5       O        0.63410    0.05390    0.55530    1.000
    O6       O        0.48170    0.11570    0.44240    1.000
    W3       W        0.86068    0.93834    0.26419    1.000
    C28      C        0.96740    0.50530    0.19750    1.000
    C29      C        0.16020    0.57920    0.16110    1.000
    C30      C        0.21560    0.40430    0.09720    1.000
    C31      C        0.02620    0.33490    0.13910    1.000
    C32      C        0.15010    0.53460    0.36900    1.000
    C33      C        0.32230    0.47280    0.28240    1.000
    C34      C        0.22550    0.30220    0.29250    1.000
    C35      C        0.03140    0.37240    0.33860    1.000
    C36      C        0.46710    0.54760    0.00150    1.000
    Co7      Co       0.69825    0.58438    0.12231    1.000
    Co8      Co       0.84265    0.28466    0.46639    1.000
    N25      N        0.87360    0.53510    0.17880    1.000
    N26      N        0.17110    0.64990    0.12100    1.000
    N27      N        0.25420    0.38780    0.02680    1.000
    N28      N        0.96850    0.28300    0.08240    1.000
    N29      N        0.15650    0.58750    0.44230    1.000
    N30      N        0.42350    0.49140    0.30030    1.000
    N31      N        0.26630    0.22730    0.32230    1.000
    N32      N        0.97400    0.33930    0.39210    1.000
    O7       O        0.36590    0.55390    0.94470    1.000
    O8       O        0.51830    0.61570    0.05760    1.000
    W4       W        0.13932    0.43834    0.23581    1.000
