# CIF file generated by openbabel 3.1.0, see https://openbabel.org
data_I
_chemical_name_common 'image0'
_cell_length_a 14.8737
_cell_length_b 9.6815
_cell_length_c 13.6354
_cell_angle_alpha 90
_cell_angle_beta 90
_cell_angle_gamma 90
_space_group_name_H-M_alt 'P 1'
_space_group_name_Hall 'P 1'
loop_
    _symmetry_equiv_pos_as_xyz
    x,y,z
loop_
    _atom_site_label
    _atom_site_type_symbol
    _atom_site_fract_x
    _atom_site_fract_y
    _atom_site_fract_z
    _atom_site_occupancy
    O1       O        0.10700    0.35330    0.65700    1.000
    O2       O        0.08550    0.19600    0.36860    1.000
    O3       O        0.60700    0.85330    0.65700    1.000
    O4       O        0.58550    0.69600    0.36860    1.000
    O5       O        0.89300    0.64670    0.15700    1.000
    O6       O        0.91450    0.80400    0.86860    1.000
    O7       O        0.39300    0.14670    0.15700    1.000
    O8       O        0.41450    0.30400    0.86860    1.000
    O9       O        0.89300    0.35330    0.84300    1.000
    O10      O        0.91450    0.19600    0.13140    1.000
    O11      O        0.39300    0.85330    0.84300    1.000
    O12      O        0.41450    0.69600    0.13140    1.000
    O13      O        0.10700    0.64670    0.34300    1.000
    O14      O        0.08550    0.80400    0.63140    1.000
    O15      O        0.60700    0.14670    0.34300    1.000
    O16      O        0.58550    0.30400    0.63140    1.000
    O17      O        0.89300    0.64670    0.34300    1.000
    O18      O        0.91450    0.80400    0.63140    1.000
    O19      O        0.39300    0.14670    0.34300    1.000
    O20      O        0.41450    0.30400    0.63140    1.000
    O21      O        0.10700    0.35330    0.84300    1.000
    O22      O        0.08550    0.19600    0.13140    1.000
    O23      O        0.60700    0.85330    0.84300    1.000
    O24      O        0.58550    0.69600    0.13140    1.000
    O25      O        0.10700    0.64670    0.15700    1.000
    O26      O        0.08550    0.80400    0.86860    1.000
    O27      O        0.60700    0.14670    0.15700    1.000
    O28      O        0.58550    0.30400    0.86860    1.000
    O29      O        0.89300    0.35330    0.65700    1.000
    O30      O        0.91450    0.19600    0.36860    1.000
    O31      O        0.39300    0.85330    0.65700    1.000
    O32      O        0.41450    0.69600    0.36860    1.000
    Co1      Co       0.12968    0.70928    0.75000    1.000
    P1       P        0.16173    0.38156    0.75000    1.000
    O33      O        0.19400    0.53290    0.75000    1.000
    O34      O        0.24300    0.28740    0.75000    1.000
    Co2      Co       0.62968    0.20928    0.75000    1.000
    P2       P        0.66173    0.88156    0.75000    1.000
    O35      O        0.69400    0.03290    0.75000    1.000
    O36      O        0.74300    0.78740    0.75000    1.000
    Co3      Co       0.87032    0.29072    0.25000    1.000
    P3       P        0.83827    0.61844    0.25000    1.000
    O37      O        0.80600    0.46710    0.25000    1.000
    O38      O        0.75700    0.71260    0.25000    1.000
    Co4      Co       0.37032    0.79072    0.25000    1.000
    P4       P        0.33827    0.11844    0.25000    1.000
    O39      O        0.30600    0.96710    0.25000    1.000
    O40      O        0.25700    0.21260    0.25000    1.000
    Co5      Co       0.87032    0.70928    0.75000    1.000
    P5       P        0.83827    0.38156    0.75000    1.000
    O41      O        0.80600    0.53290    0.75000    1.000
    O42      O        0.75700    0.28740    0.75000    1.000
    Co6      Co       0.37032    0.20928    0.75000    1.000
    P6       P        0.33827    0.88156    0.75000    1.000
    O43      O        0.30600    0.03290    0.75000    1.000
    O44      O        0.25700    0.78740    0.75000    1.000
    Co7      Co       0.12968    0.29072    0.25000    1.000
    P7       P        0.16173    0.61844    0.25000    1.000
    O45      O        0.19400    0.46710    0.25000    1.000
    O46      O        0.24300    0.71260    0.25000    1.000
    Co8      Co       0.62968    0.79072    0.25000    1.000
    P8       P        0.66173    0.11844    0.25000    1.000
    O47      O        0.69400    0.96710    0.25000    1.000
    O48      O        0.74300    0.21260    0.25000    1.000
    Co9      Co       0.00000    0.44880    0.61241    1.000
    P9       P        0.00000    0.22600    0.42674    1.000
    O49      O        0.00000    0.37570    0.46490    1.000
    F1       F        0.00000    0.12960    0.51770    1.000
    Co10     Co       0.50000    0.94880    0.61241    1.000
    P10      P        0.50000    0.72600    0.42674    1.000
    O50      O        0.50000    0.87570    0.46490    1.000
    F2       F        0.50000    0.62960    0.51770    1.000
    Co11     Co       0.00000    0.55120    0.11241    1.000
    P11      P        0.00000    0.77400    0.92674    1.000
    O51      O        0.00000    0.62430    0.96490    1.000
    F3       F        0.00000    0.87040    0.01770    1.000
    Co12     Co       0.50000    0.05120    0.11241    1.000
    P12      P        0.50000    0.27400    0.92674    1.000
    O52      O        0.50000    0.12430    0.96490    1.000
    F4       F        0.50000    0.37040    0.01770    1.000
    Co13     Co       0.00000    0.44880    0.88759    1.000
    P13      P        0.00000    0.22600    0.07326    1.000
    O53      O        0.00000    0.37570    0.03510    1.000
    F5       F        0.00000    0.12960    0.98230    1.000
    Co14     Co       0.50000    0.94880    0.88759    1.000
    P14      P        0.50000    0.72600    0.07326    1.000
    O54      O        0.50000    0.87570    0.03510    1.000
    F6       F        0.50000    0.62960    0.98230    1.000
    Co15     Co       0.00000    0.55120    0.38759    1.000
    P15      P        0.00000    0.77400    0.57326    1.000
    O55      O        0.00000    0.62430    0.53510    1.000
    F7       F        0.00000    0.87040    0.48230    1.000
    Co16     Co       0.50000    0.05120    0.38759    1.000
    P16      P        0.50000    0.27400    0.57326    1.000
    O56      O        0.50000    0.12430    0.53510    1.000
    F8       F        0.50000    0.37040    0.48230    1.000
