# CIF file generated by openbabel 3.1.0, see https://openbabel.org
data_I
_chemical_name_common 'PEWGEF_clean'
_cell_length_a 11.5733
_cell_length_b 14.6066
_cell_length_c 14.6066
_cell_angle_alpha 66.7111
_cell_angle_beta 74.6858
_cell_angle_gamma 105.314
_space_group_name_H-M_alt 'P 1'
_space_group_name_Hall 'P 1'
loop_
    _symmetry_equiv_pos_as_xyz
    x,y,z
loop_
    _atom_site_label
    _atom_site_type_symbol
    _atom_site_fract_x
    _atom_site_fract_y
    _atom_site_fract_z
    _atom_site_occupancy
    Cu1      Cu       0.08442    0.88186    0.51668    1.000
    Cu2      Cu       0.60110    0.51668    0.60146    1.000
    Cu3      Cu       0.20256    0.60146    0.88186    1.000
    Cu4      Cu       0.60110    0.39854    0.48332    1.000
    Cu5      Cu       0.20256    0.11814    0.39854    1.000
    Cu6      Cu       0.08442    0.48332    0.11814    1.000
    Cu7      Cu       0.91586    0.00000    0.40469    1.000
    Cu8      Cu       0.32055    0.40469    0.59531    1.000
    Cu9      Cu       0.91586    0.59531    0.00000    1.000
    H1       H        0.66150    0.85940    0.41880    1.000
    H2       H        0.55110    0.74880    0.52720    1.000
    H3       H        0.62380    0.74520    0.41980    1.000
    H4       H        0.82650    0.54850    0.70790    1.000
    H5       H        0.97710    0.62930    0.62490    1.000
    H6       H        0.88980    0.54910    0.59600    1.000
    H7       H        0.08030    0.41880    0.72180    1.000
    H8       H        0.07830    0.52720    0.72400    1.000
    H9       H        0.04360    0.41980    0.83500    1.000
    H10      H        0.53440    0.70790    0.74360    1.000
    H11      H        0.60200    0.62490    0.74580    1.000
    H12      H        0.48580    0.59600    0.85490    1.000
    H13      H        0.80210    0.72180    0.85940    1.000
    H14      H        0.80230    0.72400    0.74880    1.000
    H15      H        0.87860    0.83500    0.74520    1.000
    H16      H        0.27800    0.74360    0.54850    1.000
    H17      H        0.34780    0.74580    0.62930    1.000
    H18      H        0.34070    0.85490    0.54910    1.000
    H19      H        0.08030    0.27820    0.58120    1.000
    H20      H        0.07830    0.27600    0.47280    1.000
    H21      H        0.04360    0.16500    0.58020    1.000
    H22      H        0.53440    0.25640    0.29210    1.000
    H23      H        0.60200    0.25420    0.37510    1.000
    H24      H        0.48580    0.14510    0.40400    1.000
    H25      H        0.80210    0.14060    0.27820    1.000
    H26      H        0.80230    0.25120    0.27600    1.000
    H27      H        0.87860    0.25480    0.16500    1.000
    H28      H        0.27800    0.45150    0.25640    1.000
    H29      H        0.34780    0.37070    0.25420    1.000
    H30      H        0.34070    0.45090    0.14510    1.000
    H31      H        0.66150    0.58120    0.14060    1.000
    H32      H        0.55110    0.47280    0.25120    1.000
    H33      H        0.62380    0.58020    0.25480    1.000
    H34      H        0.82650    0.29210    0.45150    1.000
    H35      H        0.97710    0.37510    0.37070    1.000
    H36      H        0.88980    0.40400    0.45090    1.000
    H37      H        0.13290    0.00000    0.32990    1.000
    H38      H        0.46280    0.32990    0.67010    1.000
    H39      H        0.13290    0.67010    0.00000    1.000
    C1       C        0.63470    0.78040    0.46370    1.000
    C2       C        0.73810    0.76190    0.50220    1.000
    C3       C        0.84660    0.68130    0.57340    1.000
    C4       C        0.88870    0.59460    0.63040    1.000
    C5       C        0.09840    0.46370    0.75590    1.000
    C6       C        0.24030    0.50220    0.73590    1.000
    C7       C        0.42000    0.57340    0.74530    1.000
    C8       C        0.51910    0.63040    0.77500    1.000
    C9       C        0.85430    0.75590    0.78040    1.000
    C10      C        0.97620    0.73590    0.76190    1.000
    C11      C        0.16530    0.74530    0.68130    1.000
    C12      C        0.29410    0.77500    0.59460    1.000
    C13      C        0.09840    0.24410    0.53630    1.000
    C14      C        0.24030    0.26410    0.49780    1.000
    C15      C        0.42000    0.25470    0.42660    1.000
    C16      C        0.51910    0.22500    0.36960    1.000
    C17      C        0.85430    0.21960    0.24410    1.000
    C18      C        0.97620    0.23810    0.26410    1.000
    C19      C        0.16530    0.31870    0.25470    1.000
    C20      C        0.29410    0.40540    0.22500    1.000
    C21      C        0.63470    0.53630    0.21960    1.000
    C22      C        0.73810    0.49780    0.23810    1.000
    C23      C        0.84660    0.42660    0.31870    1.000
    C24      C        0.88870    0.36960    0.40540    1.000
    N1       N        0.84390    0.83740    0.48440    1.000
    N2       N        0.91510    0.78810    0.53080    1.000
    N3       N        0.73320    0.66040    0.55820    1.000
    N4       N        0.32830    0.48440    0.67820    1.000
    N5       N        0.44590    0.53080    0.68110    1.000
    N6       N        0.29140    0.55820    0.78140    1.000
    N7       N        0.00650    0.67820    0.83740    1.000
    N8       N        0.12700    0.68110    0.78810    1.000
    N9       N        0.07280    0.78140    0.66040    1.000
    N10      N        0.32830    0.32180    0.51560    1.000
    N11      N        0.44590    0.31890    0.46920    1.000
    N12      N        0.29140    0.21860    0.44180    1.000
    N13      N        0.00650    0.16260    0.32180    1.000
    N14      N        0.12700    0.21190    0.31890    1.000
    N15      N        0.07280    0.33960    0.21860    1.000
    N16      N        0.84390    0.51560    0.16260    1.000
    N17      N        0.91510    0.46920    0.21190    1.000
    N18      N        0.73320    0.44180    0.33960    1.000
    O1       O        0.08925    0.00000    0.38645    1.000
    O2       O        0.24110    0.00000    0.48260    1.000
    O3       O        0.47570    0.38645    0.61355    1.000
    O4       O        0.72370    0.48260    0.51740    1.000
    O5       O        0.08925    0.61355    0.00000    1.000
    O6       O        0.24110    0.51740    0.00000    1.000
