# CIF file generated by openbabel 3.1.0, see https://openbabel.org
data_I
_chemical_name_common 'image0'
_cell_length_a 17.884
_cell_length_b 11.797
_cell_length_c 20.243
_cell_angle_alpha 90
_cell_angle_beta 111.77
_cell_angle_gamma 90
_space_group_name_H-M_alt 'P 1'
_space_group_name_Hall 'P 1'
loop_
    _symmetry_equiv_pos_as_xyz
    x,y,z
loop_
    _atom_site_label
    _atom_site_type_symbol
    _atom_site_fract_x
    _atom_site_fract_y
    _atom_site_fract_z
    _atom_site_occupancy
    C1       C        0.50970    0.36820    0.40120    1.000
    H1       H        0.50930    0.28980    0.40560    1.000
    C2       C        0.51600    0.31920    0.10230    1.000
    H2       H        0.51850    0.39740    0.10830    1.000
    C3       C        0.50540    0.57860    0.23240    1.000
    H3       H        0.48100    0.57410    0.26570    1.000
    C4       C        0.68120    0.10760    0.07810    1.000
    H4       H        0.66880    0.13330    0.03190    1.000
    C5       C        0.67020    0.05190    0.17450    1.000
    H5       H        0.64830    0.03250    0.20810    1.000
    C6       C        0.74880    0.04740    0.18480    1.000
    H6       H        0.79050    0.02350    0.22580    1.000
    C7       C        0.82830    0.09110    0.10850    1.000
    C8       C        0.89020    0.01710    0.14040    1.000
    H7       H        0.88540    0.96210    0.17160    1.000
    C9       C        0.95990    0.02440    0.12610    1.000
    H8       H        0.00160    0.97360    0.14790    1.000
    C10      C        0.96960    0.10520    0.08030    1.000
    C11      C        0.90610    0.17940    0.04980    1.000
    H9       H        0.91050    0.23480    0.01880    1.000
    C12      C        0.83650    0.17380    0.06390    1.000
    H10      H        0.79530    0.22590    0.04340    1.000
    C13      C        0.33120    0.10200    0.05510    1.000
    H11      H        0.34560    0.06230    0.09780    1.000
    C14      C        0.33670    0.18540    0.96370    1.000
    H12      H        0.35630    0.21460    0.93060    1.000
    C15      C        0.26050    0.19400    0.95970    1.000
    H13      H        0.21830    0.22960    0.92380    1.000
    C16      C        0.18550    0.13110    0.03570    1.000
    C17      C        0.12360    0.20580    0.00690    1.000
    H14      H        0.12810    0.26340    0.97720    1.000
    C18      C        0.05500    0.19670    0.02130    1.000
    H15      H        0.01370    0.24870    0.00100    1.000
    C19      C        0.04490    0.11320    0.06500    1.000
    C20      C        0.10880    0.03920    0.09420    1.000
    H16      H        0.10500    0.98230    0.12470    1.000
    C21      C        0.17820    0.04760    0.07940    1.000
    H17      H        0.21990    0.99620    0.09930    1.000
    C22      C        0.33180    0.30410    0.22810    1.000
    H18      H        0.34480    0.26090    0.26920    1.000
    C23      C        0.34100    0.40090    0.14190    1.000
    H19      H        0.36270    0.43790    0.11250    1.000
    C24      C        0.26250    0.39570    0.13060    1.000
    H20      H        0.22050    0.42720    0.09260    1.000
    C25      C        0.18340    0.31510    0.20040    1.000
    C26      C        0.11700    0.38210    0.16670    1.000
    H21      H        0.11820    0.43570    0.13340    1.000
    C27      C        0.04870    0.36960    0.18230    1.000
    H22      H        0.00420    0.41520    0.15920    1.000
    C28      C        0.04450    0.29040    0.23200    1.000
    C29      C        0.11190    0.22250    0.26360    1.000
    H23      H        0.11070    0.16770    0.29620    1.000
    C30      C        0.18050    0.23370    0.24820    1.000
    H24      H        0.22460    0.18660    0.26990    1.000
    C31      C        0.69180    0.31900    0.26880    1.000
    H25      H        0.68090    0.36080    0.22730    1.000
    C32      C        0.67930    0.23430    0.35710    1.000
    H26      H        0.65710    0.20570    0.38850    1.000
    C33      C        0.75640    0.22120    0.36400    1.000
    H27      H        0.79630    0.18290    0.40040    1.000
    C34      C        0.83520    0.27900    0.28880    1.000
    C35      C        0.83610    0.34660    0.23380    1.000
    H28      H        0.79190    0.39180    0.20930    1.000
    C36      C        0.90250    0.34700    0.21540    1.000
    H29      H        0.90140    0.39110    0.17700    1.000
    C37      C        0.97180    0.28440    0.25170    1.000
    C38      C        0.96900    0.21820    0.30750    1.000
    H30      H        0.01370    0.17460    0.33330    1.000
    C39      C        0.90220    0.21520    0.32600    1.000
    H31      H        0.90240    0.16990    0.36360    1.000
    Co1      Co       0.51216    0.32728    0.25097    1.000
    Co2      Co       0.50435    0.10795    0.05348    1.000
    N1       N        0.62750    0.08950    0.10710    1.000
    N2       N        0.75580    0.08470    0.12340    1.000
    N3       N        0.38120    0.12720    0.02360    1.000
    N4       N        0.25640    0.14060    0.01820    1.000
    N5       N        0.38490    0.34390    0.20300    1.000
    N6       N        0.25580    0.33440    0.18630    1.000
    N7       N        0.63780    0.29600    0.29710    1.000
    N8       N        0.76510    0.27490    0.30720    1.000
    O1       O        0.50710    0.42860    0.45231    1.000
    O2       O        0.51260    0.40850    0.34623    1.000
    O3       O        0.51610    0.28010    0.04508    1.000
    O4       O        0.51280    0.25970    0.15190    1.000
    O5       O        0.53050    0.48860    0.21652    1.000
    O6       O        0.50960    0.67370    0.20834    1.000
    C40      C        0.49030    0.86820    0.09880    1.000
    H32      H        0.49070    0.78980    0.09440    1.000
    C41      C        0.48400    0.81920    0.39770    1.000
    H33      H        0.48150    0.89740    0.39170    1.000
    C42      C        0.49460    0.07860    0.26760    1.000
    H34      H        0.51900    0.07410    0.23430    1.000
    C43      C        0.31880    0.60760    0.42190    1.000
    H35      H        0.33120    0.63330    0.46810    1.000
    C44      C        0.32980    0.55190    0.32550    1.000
    H36      H        0.35170    0.53250    0.29190    1.000
    C45      C        0.25120    0.54740    0.31520    1.000
    H37      H        0.20950    0.52350    0.27420    1.000
    C46      C        0.17170    0.59110    0.39150    1.000
    C47      C        0.10980    0.51710    0.35960    1.000
    H38      H        0.11460    0.46210    0.32840    1.000
    C48      C        0.04010    0.52440    0.37390    1.000
    H39      H        0.99840    0.47360    0.35210    1.000
    C49      C        0.03040    0.60520    0.41970    1.000
    C50      C        0.09390    0.67940    0.45020    1.000
    H40      H        0.08950    0.73480    0.48120    1.000
    C51      C        0.16350    0.67380    0.43610    1.000
    H41      H        0.20470    0.72590    0.45660    1.000
    C52      C        0.66880    0.60200    0.44490    1.000
    H42      H        0.65440    0.56230    0.40220    1.000
    C53      C        0.66330    0.68540    0.53630    1.000
    H43      H        0.64370    0.71460    0.56940    1.000
    C54      C        0.73950    0.69400    0.54030    1.000
    H44      H        0.78170    0.72960    0.57620    1.000
    C55      C        0.81450    0.63110    0.46430    1.000
    C56      C        0.87640    0.70580    0.49310    1.000
    H45      H        0.87190    0.76340    0.52280    1.000
    C57      C        0.94500    0.69670    0.47870    1.000
    H46      H        0.98630    0.74870    0.49900    1.000
    C58      C        0.95510    0.61320    0.43500    1.000
    C59      C        0.89120    0.53920    0.40580    1.000
    H47      H        0.89500    0.48230    0.37530    1.000
    C60      C        0.82180    0.54760    0.42060    1.000
    H48      H        0.78010    0.49620    0.40070    1.000
    C61      C        0.66820    0.80410    0.27190    1.000
    H49      H        0.65520    0.76090    0.23080    1.000
    C62      C        0.65900    0.90090    0.35810    1.000
    H50      H        0.63730    0.93790    0.38750    1.000
    C63      C        0.73750    0.89570    0.36940    1.000
    H51      H        0.77950    0.92720    0.40740    1.000
    C64      C        0.81660    0.81510    0.29960    1.000
    C65      C        0.88300    0.88210    0.33330    1.000
    H52      H        0.88180    0.93570    0.36660    1.000
    C66      C        0.95130    0.86960    0.31770    1.000
    H53      H        0.99580    0.91520    0.34080    1.000
    C67      C        0.95550    0.79040    0.26800    1.000
    C68      C        0.88810    0.72250    0.23640    1.000
    H54      H        0.88930    0.66770    0.20380    1.000
    C69      C        0.81950    0.73370    0.25180    1.000
    H55      H        0.77540    0.68660    0.23010    1.000
    C70      C        0.30820    0.81900    0.23120    1.000
    H56      H        0.31910    0.86080    0.27270    1.000
    C71      C        0.32070    0.73430    0.14290    1.000
    H57      H        0.34290    0.70570    0.11150    1.000
    C72      C        0.24360    0.72120    0.13600    1.000
    H58      H        0.20370    0.68290    0.09960    1.000
    C73      C        0.16480    0.77900    0.21120    1.000
    C74      C        0.16390    0.84660    0.26620    1.000
    H59      H        0.20810    0.89180    0.29070    1.000
    C75      C        0.09750    0.84700    0.28460    1.000
    H60      H        0.09860    0.89110    0.32300    1.000
    C76      C        0.02820    0.78440    0.24830    1.000
    C77      C        0.03100    0.71820    0.19250    1.000
    H61      H        0.98630    0.67460    0.16670    1.000
    C78      C        0.09780    0.71520    0.17400    1.000
    H62      H        0.09760    0.66990    0.13640    1.000
    Co3      Co       0.48784    0.82728    0.24903    1.000
    Co4      Co       0.49565    0.60795    0.44652    1.000
    N9       N        0.37250    0.58950    0.39290    1.000
    N10      N        0.24420    0.58470    0.37660    1.000
    N11      N        0.61880    0.62720    0.47640    1.000
    N12      N        0.74360    0.64060    0.48180    1.000
    N13      N        0.61510    0.84390    0.29700    1.000
    N14      N        0.74420    0.83440    0.31370    1.000
    N15      N        0.36220    0.79600    0.20290    1.000
    N16      N        0.23490    0.77490    0.19280    1.000
    O7       O        0.49290    0.92860    0.04769    1.000
    O8       O        0.48740    0.90850    0.15377    1.000
    O9       O        0.48390    0.78010    0.45492    1.000
    O10      O        0.48720    0.75970    0.34810    1.000
    O11      O        0.46950    0.98860    0.28348    1.000
    O12      O        0.49040    0.17370    0.29166    1.000
    C79      C        0.49030    0.63180    0.59880    1.000
    H63      H        0.49070    0.71020    0.59440    1.000
    C80      C        0.48400    0.68080    0.89770    1.000
    H64      H        0.48150    0.60260    0.89170    1.000
    C81      C        0.49460    0.42140    0.76760    1.000
    H65      H        0.51900    0.42590    0.73430    1.000
    C82      C        0.31880    0.89240    0.92190    1.000
    H66      H        0.33120    0.86670    0.96810    1.000
    C83      C        0.32980    0.94810    0.82550    1.000
    H67      H        0.35170    0.96750    0.79190    1.000
    C84      C        0.25120    0.95260    0.81520    1.000
    H68      H        0.20950    0.97650    0.77420    1.000
    C85      C        0.17170    0.90890    0.89150    1.000
    C86      C        0.10980    0.98290    0.85960    1.000
    H69      H        0.11460    0.03790    0.82840    1.000
    C87      C        0.04010    0.97560    0.87390    1.000
    H70      H        0.99840    0.02640    0.85210    1.000
    C88      C        0.03040    0.89480    0.91970    1.000
    C89      C        0.09390    0.82060    0.95020    1.000
    H71      H        0.08950    0.76520    0.98120    1.000
    C90      C        0.16350    0.82620    0.93610    1.000
    H72      H        0.20470    0.77410    0.95660    1.000
    C91      C        0.66880    0.89800    0.94490    1.000
    H73      H        0.65440    0.93770    0.90220    1.000
    C92      C        0.66330    0.81460    0.03630    1.000
    H74      H        0.64370    0.78540    0.06940    1.000
    C93      C        0.73950    0.80600    0.04030    1.000
    H75      H        0.78170    0.77040    0.07620    1.000
    C94      C        0.81450    0.86890    0.96430    1.000
    C95      C        0.87640    0.79420    0.99310    1.000
    H76      H        0.87190    0.73660    0.02280    1.000
    C96      C        0.94500    0.80330    0.97870    1.000
    H77      H        0.98630    0.75130    0.99900    1.000
    C97      C        0.95510    0.88680    0.93500    1.000
    C98      C        0.89120    0.96080    0.90580    1.000
    H78      H        0.89500    0.01770    0.87530    1.000
    C99      C        0.82180    0.95240    0.92060    1.000
    H79      H        0.78010    0.00380    0.90070    1.000
    C100     C        0.66820    0.69590    0.77190    1.000
    H80      H        0.65520    0.73910    0.73080    1.000
    C101     C        0.65900    0.59910    0.85810    1.000
    H81      H        0.63730    0.56210    0.88750    1.000
    C102     C        0.73750    0.60430    0.86940    1.000
    H82      H        0.77950    0.57280    0.90740    1.000
    C103     C        0.81660    0.68490    0.79960    1.000
    C104     C        0.88300    0.61790    0.83330    1.000
    H83      H        0.88180    0.56430    0.86660    1.000
    C105     C        0.95130    0.63040    0.81770    1.000
    H84      H        0.99580    0.58480    0.84080    1.000
    C106     C        0.95550    0.70960    0.76800    1.000
    C107     C        0.88810    0.77750    0.73640    1.000
    H85      H        0.88930    0.83230    0.70380    1.000
    C108     C        0.81950    0.76630    0.75180    1.000
    H86      H        0.77540    0.81340    0.73010    1.000
    C109     C        0.30820    0.68100    0.73120    1.000
    H87      H        0.31910    0.63920    0.77270    1.000
    C110     C        0.32070    0.76570    0.64290    1.000
    H88      H        0.34290    0.79430    0.61150    1.000
    C111     C        0.24360    0.77880    0.63600    1.000
    H89      H        0.20370    0.81710    0.59960    1.000
    C112     C        0.16480    0.72100    0.71120    1.000
    C113     C        0.16390    0.65340    0.76620    1.000
    H90      H        0.20810    0.60820    0.79070    1.000
    C114     C        0.09750    0.65300    0.78460    1.000
    H91      H        0.09860    0.60890    0.82300    1.000
    C115     C        0.02820    0.71560    0.74830    1.000
    C116     C        0.03100    0.78180    0.69250    1.000
    H92      H        0.98630    0.82540    0.66670    1.000
    C117     C        0.09780    0.78480    0.67400    1.000
    H93      H        0.09760    0.83010    0.63640    1.000
    Co5      Co       0.48784    0.67272    0.74903    1.000
    Co6      Co       0.49565    0.89205    0.94652    1.000
    N17      N        0.37250    0.91050    0.89290    1.000
    N18      N        0.24420    0.91530    0.87660    1.000
    N19      N        0.61880    0.87280    0.97640    1.000
    N20      N        0.74360    0.85940    0.98180    1.000
    N21      N        0.61510    0.65610    0.79700    1.000
    N22      N        0.74420    0.66560    0.81370    1.000
    N23      N        0.36220    0.70400    0.70290    1.000
    N24      N        0.23490    0.72510    0.69280    1.000
    O13      O        0.49290    0.57140    0.54769    1.000
    O14      O        0.48740    0.59150    0.65377    1.000
    O15      O        0.48390    0.71990    0.95492    1.000
    O16      O        0.48720    0.74030    0.84810    1.000
    O17      O        0.46950    0.51140    0.78348    1.000
    O18      O        0.49040    0.32630    0.79166    1.000
    C118     C        0.50970    0.13180    0.90120    1.000
    H94      H        0.50930    0.21020    0.90560    1.000
    C119     C        0.51600    0.18080    0.60230    1.000
    H95      H        0.51850    0.10260    0.60830    1.000
    C120     C        0.50540    0.92140    0.73240    1.000
    H96      H        0.48100    0.92590    0.76570    1.000
    C121     C        0.68120    0.39240    0.57810    1.000
    H97      H        0.66880    0.36670    0.53190    1.000
    C122     C        0.67020    0.44810    0.67450    1.000
    H98      H        0.64830    0.46750    0.70810    1.000
    C123     C        0.74880    0.45260    0.68480    1.000
    H99      H        0.79050    0.47650    0.72580    1.000
    C124     C        0.82830    0.40890    0.60850    1.000
    C125     C        0.89020    0.48290    0.64040    1.000
    H100     H        0.88540    0.53790    0.67160    1.000
    C126     C        0.95990    0.47560    0.62610    1.000
    H101     H        0.00160    0.52640    0.64790    1.000
    C127     C        0.96960    0.39480    0.58030    1.000
    C128     C        0.90610    0.32060    0.54980    1.000
    H102     H        0.91050    0.26520    0.51880    1.000
    C129     C        0.83650    0.32620    0.56390    1.000
    H103     H        0.79530    0.27410    0.54340    1.000
    C130     C        0.33120    0.39800    0.55510    1.000
    H104     H        0.34560    0.43770    0.59780    1.000
    C131     C        0.33670    0.31460    0.46370    1.000
    H105     H        0.35630    0.28540    0.43060    1.000
    C132     C        0.26050    0.30600    0.45970    1.000
    H106     H        0.21830    0.27040    0.42380    1.000
    C133     C        0.18550    0.36890    0.53570    1.000
    C134     C        0.12360    0.29420    0.50690    1.000
    H107     H        0.12810    0.23660    0.47720    1.000
    C135     C        0.05500    0.30330    0.52130    1.000
    H108     H        0.01370    0.25130    0.50100    1.000
    C136     C        0.04490    0.38680    0.56500    1.000
    C137     C        0.10880    0.46080    0.59420    1.000
    H109     H        0.10500    0.51770    0.62470    1.000
    C138     C        0.17820    0.45240    0.57940    1.000
    H110     H        0.21990    0.50380    0.59930    1.000
    C139     C        0.33180    0.19590    0.72810    1.000
    H111     H        0.34480    0.23910    0.76920    1.000
    C140     C        0.34100    0.09910    0.64190    1.000
    H112     H        0.36270    0.06210    0.61250    1.000
    C141     C        0.26250    0.10430    0.63060    1.000
    H113     H        0.22050    0.07280    0.59260    1.000
    C142     C        0.18340    0.18490    0.70040    1.000
    C143     C        0.11700    0.11790    0.66670    1.000
    H114     H        0.11820    0.06430    0.63340    1.000
    C144     C        0.04870    0.13040    0.68230    1.000
    H115     H        0.00420    0.08480    0.65920    1.000
    C145     C        0.04450    0.20960    0.73200    1.000
    C146     C        0.11190    0.27750    0.76360    1.000
    H116     H        0.11070    0.33230    0.79620    1.000
    C147     C        0.18050    0.26630    0.74820    1.000
    H117     H        0.22460    0.31340    0.76990    1.000
    C148     C        0.69180    0.18100    0.76880    1.000
    H118     H        0.68090    0.13920    0.72730    1.000
    C149     C        0.67930    0.26570    0.85710    1.000
    H119     H        0.65710    0.29430    0.88850    1.000
    C150     C        0.75640    0.27880    0.86400    1.000
    H120     H        0.79630    0.31710    0.90040    1.000
    C151     C        0.83520    0.22100    0.78880    1.000
    C152     C        0.83610    0.15340    0.73380    1.000
    H121     H        0.79190    0.10820    0.70930    1.000
    C153     C        0.90250    0.15300    0.71540    1.000
    H122     H        0.90140    0.10890    0.67700    1.000
    C154     C        0.97180    0.21560    0.75170    1.000
    C155     C        0.96900    0.28180    0.80750    1.000
    H123     H        0.01370    0.32540    0.83330    1.000
    C156     C        0.90220    0.28480    0.82600    1.000
    H124     H        0.90240    0.33010    0.86360    1.000
    Co7      Co       0.51216    0.17272    0.75097    1.000
    Co8      Co       0.50435    0.39205    0.55348    1.000
    N25      N        0.62750    0.41050    0.60710    1.000
    N26      N        0.75580    0.41530    0.62340    1.000
    N27      N        0.38120    0.37280    0.52360    1.000
    N28      N        0.25640    0.35940    0.51820    1.000
    N29      N        0.38490    0.15610    0.70300    1.000
    N30      N        0.25580    0.16560    0.68630    1.000
    N31      N        0.63780    0.20400    0.79710    1.000
    N32      N        0.76510    0.22510    0.80720    1.000
    O19      O        0.50710    0.07140    0.95231    1.000
    O20      O        0.51260    0.09150    0.84623    1.000
    O21      O        0.51610    0.21990    0.54508    1.000
    O22      O        0.51280    0.24030    0.65190    1.000
    O23      O        0.53050    0.01140    0.71652    1.000
    O24      O        0.50960    0.82630    0.70834    1.000
