# CIF file generated by openbabel 3.1.0, see https://openbabel.org
data_I
_chemical_name_common 'image0'
_cell_length_a 14.123
_cell_length_b 36.166
_cell_length_c 18.341
_cell_angle_alpha 90
_cell_angle_beta 99.38
_cell_angle_gamma 90
_space_group_name_H-M_alt 'P 1'
_space_group_name_Hall 'P 1'
loop_
    _symmetry_equiv_pos_as_xyz
    x,y,z
loop_
    _atom_site_label
    _atom_site_type_symbol
    _atom_site_fract_x
    _atom_site_fract_y
    _atom_site_fract_z
    _atom_site_occupancy
    Zn1      Zn       0.77763    0.57299    0.11491    1.000
    C1       C        0.31690    0.63660    0.05520    1.000
    H1       H        0.35950    0.61690    0.06450    1.000
    O1       O        0.75210    0.44894    0.70630    1.000
    C2       C        0.79150    0.43390    0.76130    1.000
    C3       C        0.87500    0.46260    0.87100    1.000
    H2       H        0.93160    0.45690    0.85380    1.000
    C4       C        0.47930    0.84510    0.94800    1.000
    N1       N        0.61460    0.89449    0.91070    1.000
    C5       C        0.79080    0.45140    0.83450    1.000
    O2       O        0.82890    0.40450    0.75450    1.000
    O3       O        0.73810    0.54025    0.02960    1.000
    C6       C        0.80440    0.51670    0.02880    1.000
    C7       C        0.79670    0.49080    0.96400    1.000
    C8       C        0.70750    0.47620    0.92910    1.000
    C9       C        0.62270    0.47943    0.96060    1.000
    H3       H        0.62400    0.49180    0.00510    1.000
    C10      C        0.53780    0.46410    0.92490    1.000
    H4       H        0.48220    0.46650    0.94550    1.000
    C11      C        0.53520    0.44600    0.86170    1.000
    H5       H        0.47730    0.43620    0.83820    1.000
    C12      C        0.61730    0.44150    0.82980    1.000
    H6       H        0.61420    0.42850    0.78570    1.000
    C13      C        0.70530    0.45664    0.86440    1.000
    C14      C        0.87650    0.48220    0.93390    1.000
    H7       H        0.93570    0.49050    0.95830    1.000
    O4       O        0.87610    0.51606    0.07740    1.000
    N2       N        0.66360    0.61048    0.08950    1.000
    C15      C        0.64320    0.63390    0.13780    1.000
    H8       H        0.67960    0.63420    0.18480    1.000
    C16      C        0.56490    0.65960    0.11970    1.000
    H9       H        0.55080    0.67630    0.15490    1.000
    C17      C        0.51170    0.65930    0.05090    1.000
    C18      C        0.43190    0.68630    0.03190    1.000
    C19      C        0.45690    0.72280    0.01710    1.000
    C20      C        0.55220    0.73490    0.00920    1.000
    H10      H        0.60780    0.72070    0.01670    1.000
    C21      C        0.54520    0.77030    0.98910    1.000
    H11      H        0.59510    0.78540    0.97960    1.000
    C22      C        0.44660    0.78090    0.98500    1.000
    C23      C        0.41100    0.81580    0.96550    1.000
    N3       N        0.39490    0.75144    0.00220    1.000
    N4       N        0.25860    0.69545    0.02550    1.000
    C24      C        0.53330    0.63420    0.00020    1.000
    H12      H        0.49820    0.63300    0.95270    1.000
    C25      C        0.61020    0.61050    0.02320    1.000
    H13      H        0.62520    0.59340    0.98910    1.000
    C26      C        0.55420    0.87790    0.86410    1.000
    H14      H        0.55630    0.88150    0.81410    1.000
    C27      C        0.48350    0.85410    0.88400    1.000
    H15      H        0.43740    0.84470    0.84650    1.000
    C28      C        0.54260    0.86380    0.00160    1.000
    H16      H        0.53960    0.86020    0.05140    1.000
    C29      C        0.22080    0.63580    0.05620    1.000
    H17      H        0.18530    0.61540    0.06660    1.000
    C30      C        0.33990    0.67420    0.03670    1.000
    C31      C        0.31550    0.82800    0.96170    1.000
    C32      C        0.60920    0.88740    0.98120    1.000
    H18      H        0.65230    0.89900    0.01780    1.000
    Zn2      Zn       0.72237    0.07299    0.38509    1.000
    C33      C        0.18310    0.13660    0.44480    1.000
    H19      H        0.14050    0.11690    0.43550    1.000
    O5       O        0.74790    0.94894    0.79370    1.000
    C34      C        0.70850    0.93390    0.73870    1.000
    C35      C        0.62500    0.96260    0.62900    1.000
    H20      H        0.56840    0.95690    0.64620    1.000
    C36      C        0.02070    0.34510    0.55200    1.000
    N5       N        0.88540    0.39449    0.58930    1.000
    C37      C        0.70920    0.95140    0.66550    1.000
    O6       O        0.67110    0.90450    0.74550    1.000
    O7       O        0.76190    0.04025    0.47040    1.000
    C38      C        0.69560    0.01670    0.47120    1.000
    C39      C        0.70330    0.99080    0.53600    1.000
    C40      C        0.79250    0.97620    0.57090    1.000
    C41      C        0.87730    0.97943    0.53940    1.000
    H21      H        0.87600    0.99180    0.49490    1.000
    C42      C        0.96220    0.96410    0.57510    1.000
    H22      H        0.01780    0.96650    0.55450    1.000
    C43      C        0.96480    0.94600    0.63830    1.000
    H23      H        0.02270    0.93620    0.66180    1.000
    C44      C        0.88270    0.94150    0.67020    1.000
    H24      H        0.88580    0.92850    0.71430    1.000
    C45      C        0.79470    0.95664    0.63560    1.000
    C46      C        0.62350    0.98220    0.56610    1.000
    H25      H        0.56430    0.99050    0.54170    1.000
    O8       O        0.62390    0.01606    0.42260    1.000
    N6       N        0.83640    0.11048    0.41050    1.000
    C47      C        0.85680    0.13390    0.36220    1.000
    H26      H        0.82040    0.13420    0.31520    1.000
    C48      C        0.93510    0.15960    0.38030    1.000
    H27      H        0.94920    0.17630    0.34510    1.000
    C49      C        0.98830    0.15930    0.44910    1.000
    C50      C        0.06810    0.18630    0.46810    1.000
    C51      C        0.04310    0.22280    0.48290    1.000
    C52      C        0.94780    0.23490    0.49080    1.000
    H28      H        0.89220    0.22070    0.48330    1.000
    C53      C        0.95480    0.27030    0.51090    1.000
    H29      H        0.90490    0.28540    0.52040    1.000
    C54      C        0.05340    0.28090    0.51500    1.000
    C55      C        0.08900    0.31580    0.53450    1.000
    N7       N        0.10510    0.25144    0.49780    1.000
    N8       N        0.24140    0.19545    0.47450    1.000
    C56      C        0.96670    0.13420    0.49980    1.000
    H30      H        0.00180    0.13300    0.54730    1.000
    C57      C        0.88980    0.11050    0.47680    1.000
    H31      H        0.87480    0.09340    0.51090    1.000
    C58      C        0.94580    0.37790    0.63590    1.000
    H32      H        0.94370    0.38150    0.68590    1.000
    C59      C        0.01650    0.35410    0.61600    1.000
    H33      H        0.06260    0.34470    0.65350    1.000
    C60      C        0.95740    0.36380    0.49840    1.000
    H34      H        0.96040    0.36020    0.44860    1.000
    C61      C        0.27920    0.13580    0.44380    1.000
    H35      H        0.31470    0.11540    0.43340    1.000
    C62      C        0.16010    0.17420    0.46330    1.000
    C63      C        0.18450    0.32800    0.53830    1.000
    C64      C        0.89080    0.38740    0.51880    1.000
    H36      H        0.84770    0.39900    0.48220    1.000
    Zn3      Zn       0.72237    0.92701    0.88509    1.000
    C65      C        0.18310    0.86340    0.94480    1.000
    H37      H        0.14050    0.88310    0.93550    1.000
    O9       O        0.74790    0.05106    0.29370    1.000
    C66      C        0.70850    0.06610    0.23870    1.000
    C67      C        0.62500    0.03740    0.12900    1.000
    H38      H        0.56840    0.04310    0.14620    1.000
    C68      C        0.02070    0.65490    0.05200    1.000
    N9       N        0.88540    0.60551    0.08930    1.000
    C69      C        0.70920    0.04860    0.16550    1.000
    O10      O        0.67110    0.09550    0.24550    1.000
    O11      O        0.76190    0.95975    0.97040    1.000
    C70      C        0.69560    0.98330    0.97120    1.000
    C71      C        0.70330    0.00920    0.03600    1.000
    C72      C        0.79250    0.02380    0.07090    1.000
    C73      C        0.87730    0.02057    0.03940    1.000
    H39      H        0.87600    0.00820    0.99490    1.000
    C74      C        0.96220    0.03590    0.07510    1.000
    H40      H        0.01780    0.03350    0.05450    1.000
    C75      C        0.96480    0.05400    0.13830    1.000
    H41      H        0.02270    0.06380    0.16180    1.000
    C76      C        0.88270    0.05850    0.17020    1.000
    H42      H        0.88580    0.07150    0.21430    1.000
    C77      C        0.79470    0.04336    0.13560    1.000
    C78      C        0.62350    0.01780    0.06610    1.000
    H43      H        0.56430    0.00950    0.04170    1.000
    O12      O        0.62390    0.98394    0.92260    1.000
    N10      N        0.83640    0.88952    0.91050    1.000
    C79      C        0.85680    0.86610    0.86220    1.000
    H44      H        0.82040    0.86580    0.81520    1.000
    C80      C        0.93510    0.84040    0.88030    1.000
    H45      H        0.94920    0.82370    0.84510    1.000
    C81      C        0.98830    0.84070    0.94910    1.000
    C82      C        0.06810    0.81370    0.96810    1.000
    C83      C        0.04310    0.77720    0.98290    1.000
    C84      C        0.94780    0.76510    0.99080    1.000
    H46      H        0.89220    0.77930    0.98330    1.000
    C85      C        0.95480    0.72970    0.01090    1.000
    H47      H        0.90490    0.71460    0.02040    1.000
    C86      C        0.05340    0.71910    0.01500    1.000
    C87      C        0.08900    0.68420    0.03450    1.000
    N11      N        0.10510    0.74856    0.99780    1.000
    N12      N        0.24140    0.80455    0.97450    1.000
    C88      C        0.96670    0.86580    0.99980    1.000
    H48      H        0.00180    0.86700    0.04730    1.000
    C89      C        0.88980    0.88950    0.97680    1.000
    H49      H        0.87480    0.90660    0.01090    1.000
    C90      C        0.94580    0.62210    0.13590    1.000
    H50      H        0.94370    0.61850    0.18590    1.000
    C91      C        0.01650    0.64590    0.11600    1.000
    H51      H        0.06260    0.65530    0.15350    1.000
    C92      C        0.95740    0.63620    0.99840    1.000
    H52      H        0.96040    0.63980    0.94860    1.000
    C93      C        0.27920    0.86420    0.94380    1.000
    H53      H        0.31470    0.88460    0.93340    1.000
    C94      C        0.16010    0.82580    0.96330    1.000
    C95      C        0.18450    0.67200    0.03830    1.000
    C96      C        0.89080    0.61260    0.01880    1.000
    H54      H        0.84770    0.60100    0.98220    1.000
    Zn4      Zn       0.77763    0.42701    0.61491    1.000
    C97      C        0.31690    0.36340    0.55520    1.000
    H55      H        0.35950    0.38310    0.56450    1.000
    O13      O        0.75210    0.55106    0.20630    1.000
    C98      C        0.79150    0.56610    0.26130    1.000
    C99      C        0.87500    0.53740    0.37100    1.000
    H56      H        0.93160    0.54310    0.35380    1.000
    C100     C        0.47930    0.15490    0.44800    1.000
    N13      N        0.61460    0.10551    0.41070    1.000
    C101     C        0.79080    0.54860    0.33450    1.000
    O14      O        0.82890    0.59550    0.25450    1.000
    O15      O        0.73810    0.45975    0.52960    1.000
    C102     C        0.80440    0.48330    0.52880    1.000
    C103     C        0.79670    0.50920    0.46400    1.000
    C104     C        0.70750    0.52380    0.42910    1.000
    C105     C        0.62270    0.52057    0.46060    1.000
    H57      H        0.62400    0.50820    0.50510    1.000
    C106     C        0.53780    0.53590    0.42490    1.000
    H58      H        0.48220    0.53350    0.44550    1.000
    C107     C        0.53520    0.55400    0.36170    1.000
    H59      H        0.47730    0.56380    0.33820    1.000
    C108     C        0.61730    0.55850    0.32980    1.000
    H60      H        0.61420    0.57150    0.28570    1.000
    C109     C        0.70530    0.54336    0.36440    1.000
    C110     C        0.87650    0.51780    0.43390    1.000
    H61      H        0.93570    0.50950    0.45830    1.000
    O16      O        0.87610    0.48394    0.57740    1.000
    N14      N        0.66360    0.38952    0.58950    1.000
    C111     C        0.64320    0.36610    0.63780    1.000
    H62      H        0.67960    0.36580    0.68480    1.000
    C112     C        0.56490    0.34040    0.61970    1.000
    H63      H        0.55080    0.32370    0.65490    1.000
    C113     C        0.51170    0.34070    0.55090    1.000
    C114     C        0.43190    0.31370    0.53190    1.000
    C115     C        0.45690    0.27720    0.51710    1.000
    C116     C        0.55220    0.26510    0.50920    1.000
    H64      H        0.60780    0.27930    0.51670    1.000
    C117     C        0.54520    0.22970    0.48910    1.000
    H65      H        0.59510    0.21460    0.47960    1.000
    C118     C        0.44660    0.21910    0.48500    1.000
    C119     C        0.41100    0.18420    0.46550    1.000
    N15      N        0.39490    0.24856    0.50220    1.000
    N16      N        0.25860    0.30455    0.52550    1.000
    C120     C        0.53330    0.36580    0.50020    1.000
    H66      H        0.49820    0.36700    0.45270    1.000
    C121     C        0.61020    0.38950    0.52320    1.000
    H67      H        0.62520    0.40660    0.48910    1.000
    C122     C        0.55420    0.12210    0.36410    1.000
    H68      H        0.55630    0.11850    0.31410    1.000
    C123     C        0.48350    0.14590    0.38400    1.000
    H69      H        0.43740    0.15530    0.34650    1.000
    C124     C        0.54260    0.13620    0.50160    1.000
    H70      H        0.53960    0.13980    0.55140    1.000
    C125     C        0.22080    0.36420    0.55620    1.000
    H71      H        0.18530    0.38460    0.56660    1.000
    C126     C        0.33990    0.32580    0.53670    1.000
    C127     C        0.31550    0.17200    0.46170    1.000
    C128     C        0.60920    0.11260    0.48120    1.000
    H72      H        0.65230    0.10100    0.51780    1.000
    Zn5      Zn       0.25000    0.75000    0.00000    1.000
    Zn6      Zn       0.25000    0.25000    0.50000    1.000
    Zn7      Zn       0.27763    0.07299    0.11491    1.000
    C129     C        0.81690    0.13660    0.05520    1.000
    H73      H        0.85950    0.11690    0.06450    1.000
    O17      O        0.25210    0.94894    0.70630    1.000
    C130     C        0.29150    0.93390    0.76130    1.000
    C131     C        0.37500    0.96260    0.87100    1.000
    H74      H        0.43160    0.95690    0.85380    1.000
    C132     C        0.97930    0.34510    0.94800    1.000
    N17      N        0.11460    0.39449    0.91070    1.000
    C133     C        0.29080    0.95140    0.83450    1.000
    O18      O        0.32890    0.90450    0.75450    1.000
    O19      O        0.23810    0.04025    0.02960    1.000
    C134     C        0.30440    0.01670    0.02880    1.000
    C135     C        0.29670    0.99080    0.96400    1.000
    C136     C        0.20750    0.97620    0.92910    1.000
    C137     C        0.12270    0.97943    0.96060    1.000
    H75      H        0.12400    0.99180    0.00510    1.000
    C138     C        0.03780    0.96410    0.92490    1.000
    H76      H        0.98220    0.96650    0.94550    1.000
    C139     C        0.03520    0.94600    0.86170    1.000
    H77      H        0.97730    0.93620    0.83820    1.000
    C140     C        0.11730    0.94150    0.82980    1.000
    H78      H        0.11420    0.92850    0.78570    1.000
    C141     C        0.20530    0.95664    0.86440    1.000
    C142     C        0.37650    0.98220    0.93390    1.000
    H79      H        0.43570    0.99050    0.95830    1.000
    O20      O        0.37610    0.01606    0.07740    1.000
    N18      N        0.16360    0.11048    0.08950    1.000
    C143     C        0.14320    0.13390    0.13780    1.000
    H80      H        0.17960    0.13420    0.18480    1.000
    C144     C        0.06490    0.15960    0.11970    1.000
    H81      H        0.05080    0.17630    0.15490    1.000
    C145     C        0.01170    0.15930    0.05090    1.000
    C146     C        0.93190    0.18630    0.03190    1.000
    C147     C        0.95690    0.22280    0.01710    1.000
    C148     C        0.05220    0.23490    0.00920    1.000
    H82      H        0.10780    0.22070    0.01670    1.000
    C149     C        0.04520    0.27030    0.98910    1.000
    H83      H        0.09510    0.28540    0.97960    1.000
    C150     C        0.94660    0.28090    0.98500    1.000
    C151     C        0.91100    0.31580    0.96550    1.000
    N19      N        0.89490    0.25144    0.00220    1.000
    N20      N        0.75860    0.19545    0.02550    1.000
    C152     C        0.03330    0.13420    0.00020    1.000
    H84      H        0.99820    0.13300    0.95270    1.000
    C153     C        0.11020    0.11050    0.02320    1.000
    H85      H        0.12520    0.09340    0.98910    1.000
    C154     C        0.05420    0.37790    0.86410    1.000
    H86      H        0.05630    0.38150    0.81410    1.000
    C155     C        0.98350    0.35410    0.88400    1.000
    H87      H        0.93740    0.34470    0.84650    1.000
    C156     C        0.04260    0.36380    0.00160    1.000
    H88      H        0.03960    0.36020    0.05140    1.000
    C157     C        0.72080    0.13580    0.05620    1.000
    H89      H        0.68530    0.11540    0.06660    1.000
    C158     C        0.83990    0.17420    0.03670    1.000
    C159     C        0.81550    0.32800    0.96170    1.000
    C160     C        0.10920    0.38740    0.98120    1.000
    H90      H        0.15230    0.39900    0.01780    1.000
    Zn8      Zn       0.22237    0.57299    0.38509    1.000
    C161     C        0.68310    0.63660    0.44480    1.000
    H91      H        0.64050    0.61690    0.43550    1.000
    O21      O        0.24790    0.44894    0.79370    1.000
    C162     C        0.20850    0.43390    0.73870    1.000
    C163     C        0.12500    0.46260    0.62900    1.000
    H92      H        0.06840    0.45690    0.64620    1.000
    C164     C        0.52070    0.84510    0.55200    1.000
    N21      N        0.38540    0.89449    0.58930    1.000
    C165     C        0.20920    0.45140    0.66550    1.000
    O22      O        0.17110    0.40450    0.74550    1.000
    O23      O        0.26190    0.54025    0.47040    1.000
    C166     C        0.19560    0.51670    0.47120    1.000
    C167     C        0.20330    0.49080    0.53600    1.000
    C168     C        0.29250    0.47620    0.57090    1.000
    C169     C        0.37730    0.47943    0.53940    1.000
    H93      H        0.37600    0.49180    0.49490    1.000
    C170     C        0.46220    0.46410    0.57510    1.000
    H94      H        0.51780    0.46650    0.55450    1.000
    C171     C        0.46480    0.44600    0.63830    1.000
    H95      H        0.52270    0.43620    0.66180    1.000
    C172     C        0.38270    0.44150    0.67020    1.000
    H96      H        0.38580    0.42850    0.71430    1.000
    C173     C        0.29470    0.45664    0.63560    1.000
    C174     C        0.12350    0.48220    0.56610    1.000
    H97      H        0.06430    0.49050    0.54170    1.000
    O24      O        0.12390    0.51606    0.42260    1.000
    N22      N        0.33640    0.61048    0.41050    1.000
    C175     C        0.35680    0.63390    0.36220    1.000
    H98      H        0.32040    0.63420    0.31520    1.000
    C176     C        0.43510    0.65960    0.38030    1.000
    H99      H        0.44920    0.67630    0.34510    1.000
    C177     C        0.48830    0.65930    0.44910    1.000
    C178     C        0.56810    0.68630    0.46810    1.000
    C179     C        0.54310    0.72280    0.48290    1.000
    C180     C        0.44780    0.73490    0.49080    1.000
    H100     H        0.39220    0.72070    0.48330    1.000
    C181     C        0.45480    0.77030    0.51090    1.000
    H101     H        0.40490    0.78540    0.52040    1.000
    C182     C        0.55340    0.78090    0.51500    1.000
    C183     C        0.58900    0.81580    0.53450    1.000
    N23      N        0.60510    0.75144    0.49780    1.000
    N24      N        0.74140    0.69545    0.47450    1.000
    C184     C        0.46670    0.63420    0.49980    1.000
    H102     H        0.50180    0.63300    0.54730    1.000
    C185     C        0.38980    0.61050    0.47680    1.000
    H103     H        0.37480    0.59340    0.51090    1.000
    C186     C        0.44580    0.87790    0.63590    1.000
    H104     H        0.44370    0.88150    0.68590    1.000
    C187     C        0.51650    0.85410    0.61600    1.000
    H105     H        0.56260    0.84470    0.65350    1.000
    C188     C        0.45740    0.86380    0.49840    1.000
    H106     H        0.46040    0.86020    0.44860    1.000
    C189     C        0.77920    0.63580    0.44380    1.000
    H107     H        0.81470    0.61540    0.43340    1.000
    C190     C        0.66010    0.67420    0.46330    1.000
    C191     C        0.68450    0.82800    0.53830    1.000
    C192     C        0.39080    0.88740    0.51880    1.000
    H108     H        0.34770    0.89900    0.48220    1.000
    Zn9      Zn       0.22237    0.42701    0.88509    1.000
    C193     C        0.68310    0.36340    0.94480    1.000
    H109     H        0.64050    0.38310    0.93550    1.000
    O25      O        0.24790    0.55106    0.29370    1.000
    C194     C        0.20850    0.56610    0.23870    1.000
    C195     C        0.12500    0.53740    0.12900    1.000
    H110     H        0.06840    0.54310    0.14620    1.000
    C196     C        0.52070    0.15490    0.05200    1.000
    N25      N        0.38540    0.10551    0.08930    1.000
    C197     C        0.20920    0.54860    0.16550    1.000
    O26      O        0.17110    0.59550    0.24550    1.000
    O27      O        0.26190    0.45975    0.97040    1.000
    C198     C        0.19560    0.48330    0.97120    1.000
    C199     C        0.20330    0.50920    0.03600    1.000
    C200     C        0.29250    0.52380    0.07090    1.000
    C201     C        0.37730    0.52057    0.03940    1.000
    H111     H        0.37600    0.50820    0.99490    1.000
    C202     C        0.46220    0.53590    0.07510    1.000
    H112     H        0.51780    0.53350    0.05450    1.000
    C203     C        0.46480    0.55400    0.13830    1.000
    H113     H        0.52270    0.56380    0.16180    1.000
    C204     C        0.38270    0.55850    0.17020    1.000
    H114     H        0.38580    0.57150    0.21430    1.000
    C205     C        0.29470    0.54336    0.13560    1.000
    C206     C        0.12350    0.51780    0.06610    1.000
    H115     H        0.06430    0.50950    0.04170    1.000
    O28      O        0.12390    0.48394    0.92260    1.000
    N26      N        0.33640    0.38952    0.91050    1.000
    C207     C        0.35680    0.36610    0.86220    1.000
    H116     H        0.32040    0.36580    0.81520    1.000
    C208     C        0.43510    0.34040    0.88030    1.000
    H117     H        0.44920    0.32370    0.84510    1.000
    C209     C        0.48830    0.34070    0.94910    1.000
    C210     C        0.56810    0.31370    0.96810    1.000
    C211     C        0.54310    0.27720    0.98290    1.000
    C212     C        0.44780    0.26510    0.99080    1.000
    H118     H        0.39220    0.27930    0.98330    1.000
    C213     C        0.45480    0.22970    0.01090    1.000
    H119     H        0.40490    0.21460    0.02040    1.000
    C214     C        0.55340    0.21910    0.01500    1.000
    C215     C        0.58900    0.18420    0.03450    1.000
    N27      N        0.60510    0.24856    0.99780    1.000
    N28      N        0.74140    0.30455    0.97450    1.000
    C216     C        0.46670    0.36580    0.99980    1.000
    H120     H        0.50180    0.36700    0.04730    1.000
    C217     C        0.38980    0.38950    0.97680    1.000
    H121     H        0.37480    0.40660    0.01090    1.000
    C218     C        0.44580    0.12210    0.13590    1.000
    H122     H        0.44370    0.11850    0.18590    1.000
    C219     C        0.51650    0.14590    0.11600    1.000
    H123     H        0.56260    0.15530    0.15350    1.000
    C220     C        0.45740    0.13620    0.99840    1.000
    H124     H        0.46040    0.13980    0.94860    1.000
    C221     C        0.77920    0.36420    0.94380    1.000
    H125     H        0.81470    0.38460    0.93340    1.000
    C222     C        0.66010    0.32580    0.96330    1.000
    C223     C        0.68450    0.17200    0.03830    1.000
    C224     C        0.39080    0.11260    0.01880    1.000
    H126     H        0.34770    0.10100    0.98220    1.000
    Zn10     Zn       0.27763    0.92701    0.61491    1.000
    C225     C        0.81690    0.86340    0.55520    1.000
    H127     H        0.85950    0.88310    0.56450    1.000
    O29      O        0.25210    0.05106    0.20630    1.000
    C226     C        0.29150    0.06610    0.26130    1.000
    C227     C        0.37500    0.03740    0.37100    1.000
    H128     H        0.43160    0.04310    0.35380    1.000
    C228     C        0.97930    0.65490    0.44800    1.000
    N29      N        0.11460    0.60551    0.41070    1.000
    C229     C        0.29080    0.04860    0.33450    1.000
    O30      O        0.32890    0.09550    0.25450    1.000
    O31      O        0.23810    0.95975    0.52960    1.000
    C230     C        0.30440    0.98330    0.52880    1.000
    C231     C        0.29670    0.00920    0.46400    1.000
    C232     C        0.20750    0.02380    0.42910    1.000
    C233     C        0.12270    0.02057    0.46060    1.000
    H129     H        0.12400    0.00820    0.50510    1.000
    C234     C        0.03780    0.03590    0.42490    1.000
    H130     H        0.98220    0.03350    0.44550    1.000
    C235     C        0.03520    0.05400    0.36170    1.000
    H131     H        0.97730    0.06380    0.33820    1.000
    C236     C        0.11730    0.05850    0.32980    1.000
    H132     H        0.11420    0.07150    0.28570    1.000
    C237     C        0.20530    0.04336    0.36440    1.000
    C238     C        0.37650    0.01780    0.43390    1.000
    H133     H        0.43570    0.00950    0.45830    1.000
    O32      O        0.37610    0.98394    0.57740    1.000
    N30      N        0.16360    0.88952    0.58950    1.000
    C239     C        0.14320    0.86610    0.63780    1.000
    H134     H        0.17960    0.86580    0.68480    1.000
    C240     C        0.06490    0.84040    0.61970    1.000
    H135     H        0.05080    0.82370    0.65490    1.000
    C241     C        0.01170    0.84070    0.55090    1.000
    C242     C        0.93190    0.81370    0.53190    1.000
    C243     C        0.95690    0.77720    0.51710    1.000
    C244     C        0.05220    0.76510    0.50920    1.000
    H136     H        0.10780    0.77930    0.51670    1.000
    C245     C        0.04520    0.72970    0.48910    1.000
    H137     H        0.09510    0.71460    0.47960    1.000
    C246     C        0.94660    0.71910    0.48500    1.000
    C247     C        0.91100    0.68420    0.46550    1.000
    N31      N        0.89490    0.74856    0.50220    1.000
    N32      N        0.75860    0.80455    0.52550    1.000
    C248     C        0.03330    0.86580    0.50020    1.000
    H138     H        0.99820    0.86700    0.45270    1.000
    C249     C        0.11020    0.88950    0.52320    1.000
    H139     H        0.12520    0.90660    0.48910    1.000
    C250     C        0.05420    0.62210    0.36410    1.000
    H140     H        0.05630    0.61850    0.31410    1.000
    C251     C        0.98350    0.64590    0.38400    1.000
    H141     H        0.93740    0.65530    0.34650    1.000
    C252     C        0.04260    0.63620    0.50160    1.000
    H142     H        0.03960    0.63980    0.55140    1.000
    C253     C        0.72080    0.86420    0.55620    1.000
    H143     H        0.68530    0.88460    0.56660    1.000
    C254     C        0.83990    0.82580    0.53670    1.000
    C255     C        0.81550    0.67200    0.46170    1.000
    C256     C        0.10920    0.61260    0.48120    1.000
    H144     H        0.15230    0.60100    0.51780    1.000
    Zn11     Zn       0.75000    0.75000    0.50000    1.000
    Zn12     Zn       0.75000    0.25000    0.00000    1.000
