# CIF file generated by openbabel 3.1.0, see https://openbabel.org
data_I
_chemical_name_common 'image0'
_cell_length_a 18.5283
_cell_length_b 14.2219
_cell_length_c 21.9146
_cell_angle_alpha 90
_cell_angle_beta 93.897
_cell_angle_gamma 90
_space_group_name_H-M_alt 'P 1'
_space_group_name_Hall 'P 1'
loop_
    _symmetry_equiv_pos_as_xyz
    x,y,z
loop_
    _atom_site_label
    _atom_site_type_symbol
    _atom_site_fract_x
    _atom_site_fract_y
    _atom_site_fract_z
    _atom_site_occupancy
    C1       C        0.36020    0.42870    0.50039    1.000
    C2       C        0.40550    0.51160    0.52148    1.000
    C3       C        0.40510    0.59250    0.48576    1.000
    H1       H        0.37770    0.59520    0.44750    1.000
    C4       C        0.44560    0.66960    0.50733    1.000
    C5       C        0.49030    0.66430    0.56001    1.000
    H2       H        0.51830    0.71730    0.57340    1.000
    C6       C        0.49440    0.58290    0.59306    1.000
    C7       C        0.45000    0.50750    0.57473    1.000
    H3       H        0.45020    0.45230    0.59920    1.000
    C8       C        0.54490    0.57230    0.64890    1.000
    C9       C        0.43890    0.90920    0.46260    1.000
    C10      C        0.48250    0.91640    0.41370    1.000
    H4       H        0.51030    0.86400    0.40230    1.000
    C11      C        0.48530    0.99980    0.38170    1.000
    C12      C        0.44250    0.07490    0.39650    1.000
    H5       H        0.44290    0.13110    0.37320    1.000
    C13      C        0.39890    0.06830    0.44550    1.000
    C14      C        0.39800    0.98540    0.47940    1.000
    H6       H        0.36960    0.98110    0.51380    1.000
    C15      C        0.35620    0.15100    0.46260    1.000
    C16      C        0.53970    0.01120    0.33190    1.000
    C17      C        0.26490    0.53270    0.31080    1.000
    C18      C        0.21910    0.61160    0.33210    1.000
    C19      C        0.22050    0.70000    0.30340    1.000
    H7       H        0.25000    0.71050    0.27030    1.000
    C20      C        0.17760    0.77180    0.32440    1.000
    C21      C        0.13390    0.75680    0.37120    1.000
    H8       H        0.10560    0.80700    0.38550    1.000
    C22      C        0.13050    0.67010    0.39760    1.000
    C23      C        0.17420    0.59700    0.37900    1.000
    H9       H        0.17300    0.53750    0.39850    1.000
    C24      C        0.17710    0.86700    0.29480    1.000
    C25      C        0.02850    0.61120    0.52140    1.000
    C26      C        0.05060    0.57550    0.57780    1.000
    H10      H        0.09810    0.55120    0.58510    1.000
    C27      C        0.00390    0.57520    0.62340    1.000
    C28      C        0.93370    0.60910    0.61290    1.000
    H11      H        0.90170    0.60930    0.64500    1.000
    C29      C        0.91070    0.64200    0.55600    1.000
    C30      C        0.95820    0.64380    0.50960    1.000
    H12      H        0.94280    0.66700    0.47020    1.000
    C31      C        0.83380    0.67420    0.54410    1.000
    C32      C        0.02750    0.53990    0.68580    1.000
    N1       N        0.30950    0.32430    0.21880    1.000
    C33      C        0.30230    0.31210    0.15810    1.000
    H13      H        0.32590    0.35650    0.13400    1.000
    N2       N        0.26540    0.24410    0.12810    1.000
    C34      C        0.22680    0.17950    0.15910    1.000
    C35      C        0.23210    0.18550    0.22260    1.000
    C36      C        0.27480    0.25790    0.25080    1.000
    N3       N        0.27320    0.24840    0.31160    1.000
    C37      C        0.23260    0.17330    0.31970    1.000
    H14      H        0.22250    0.15110    0.35910    1.000
    N4       N        0.20640    0.13080    0.26740    1.000
    N5       N        0.18120    0.11830    0.12920    1.000
    H15      H        0.17580    0.11940    0.08900    1.000
    H16      H        0.15690    0.07740    0.14990    1.000
    N6       N        0.44230    0.75190    0.46918    1.000
    N7       N        0.43670    0.82570    0.49956    1.000
    N8       N        0.06970    0.66750    0.44540    1.000
    N9       N        0.08440    0.60750    0.47690    1.000
    O1       O        0.33446    0.42962    0.44686    1.000
    O2       O        0.35250    0.36520    0.53976    1.000
    O3       O        0.54140    0.50140    0.68131    1.000
    O4       O        0.59207    0.63560    0.66186    1.000
    O5       O        0.32740    0.14820    0.51292    1.000
    O6       O        0.35100    0.21870    0.42645    1.000
    O7       O        0.55530    0.08960    0.31610    1.000
    O8       O        0.56450    0.93870    0.31330    1.000
    O9       O        0.30910    0.55330    0.27010    1.000
    O10      O        0.25750    0.45380    0.33213    1.000
    O11      O        0.21030    0.87940    0.24890    1.000
    O12      O        0.14380    0.93140    0.32120    1.000
    O13      O        0.81190    0.68400    0.48897    1.000
    O14      O        0.79828    0.69040    0.58813    1.000
    O15      O        0.99300    0.55800    0.72810    1.000
    O16      O        0.08520    0.48970    0.68940    1.000
    Zn1      Zn       0.30438    0.33512    0.38042    1.000
    Zn2      Zn       0.28090    0.26241    0.53712    1.000
    Zn3      Zn       0.37288    0.44588    0.25451    1.000
    Zn4      Zn       0.12409    0.03962    0.27130    1.000
    N10      N        0.27290    0.26080    0.29170    1.000
    C38      C        0.23020    0.18440    0.29610    1.000
    H17      H        0.21960    0.16510    0.33600    1.000
    N11      N        0.20080    0.13250    0.24810    1.000
    C39      C        0.21850    0.15120    0.19150    1.000
    C40      C        0.26100    0.23030    0.18240    1.000
    C41      C        0.28790    0.28160    0.23220    1.000
    N12      N        0.32520    0.35750    0.21350    1.000
    C42      C        0.32080    0.34550    0.15120    1.000
    H18      H        0.34290    0.38820    0.12480    1.000
    N13      N        0.28340    0.26970    0.12940    1.000
    N14      N        0.20090    0.09360    0.13990    1.000
    H19      H        0.17650    0.04110    0.14410    1.000
    H20      H        0.21430    0.11020    0.10370    1.000
    C43      C        0.63980    0.92870    0.99961    1.000
    C44      C        0.59450    0.01160    0.97852    1.000
    C45      C        0.59490    0.09250    0.01424    1.000
    H21      H        0.62230    0.09520    0.05250    1.000
    C46      C        0.55440    0.16960    0.99267    1.000
    C47      C        0.50970    0.16430    0.93999    1.000
    H22      H        0.48170    0.21730    0.92660    1.000
    C48      C        0.50560    0.08290    0.90694    1.000
    C49      C        0.55000    0.00750    0.92527    1.000
    H23      H        0.54980    0.95230    0.90080    1.000
    C50      C        0.45510    0.07230    0.85110    1.000
    C51      C        0.56110    0.40920    0.03740    1.000
    C52      C        0.51750    0.41640    0.08630    1.000
    H24      H        0.48970    0.36400    0.09770    1.000
    C53      C        0.51470    0.49980    0.11830    1.000
    C54      C        0.55750    0.57490    0.10350    1.000
    H25      H        0.55710    0.63110    0.12680    1.000
    C55      C        0.60110    0.56830    0.05450    1.000
    C56      C        0.60200    0.48540    0.02060    1.000
    H26      H        0.63040    0.48110    0.98620    1.000
    C57      C        0.64380    0.65100    0.03740    1.000
    C58      C        0.46030    0.51120    0.16810    1.000
    C59      C        0.73510    0.03270    0.18920    1.000
    C60      C        0.78090    0.11160    0.16790    1.000
    C61      C        0.77950    0.20000    0.19660    1.000
    H27      H        0.75000    0.21050    0.22970    1.000
    C62      C        0.82240    0.27180    0.17560    1.000
    C63      C        0.86610    0.25680    0.12880    1.000
    H28      H        0.89440    0.30700    0.11450    1.000
    C64      C        0.86950    0.17010    0.10240    1.000
    C65      C        0.82580    0.09700    0.12100    1.000
    H29      H        0.82700    0.03750    0.10150    1.000
    C66      C        0.82290    0.36700    0.20520    1.000
    C67      C        0.97150    0.11120    0.97860    1.000
    C68      C        0.94940    0.07550    0.92220    1.000
    H30      H        0.90190    0.05120    0.91490    1.000
    C69      C        0.99610    0.07520    0.87660    1.000
    C70      C        0.06630    0.10910    0.88710    1.000
    H31      H        0.09830    0.10930    0.85500    1.000
    C71      C        0.08930    0.14200    0.94400    1.000
    C72      C        0.04180    0.14380    0.99040    1.000
    H32      H        0.05720    0.16700    0.02980    1.000
    C73      C        0.16620    0.17420    0.95590    1.000
    C74      C        0.97250    0.03990    0.81420    1.000
    N15      N        0.69050    0.82430    0.28120    1.000
    C75      C        0.69770    0.81210    0.34190    1.000
    H33      H        0.67410    0.85650    0.36600    1.000
    N16      N        0.73460    0.74410    0.37190    1.000
    C76      C        0.77320    0.67950    0.34090    1.000
    C77      C        0.76790    0.68550    0.27740    1.000
    C78      C        0.72520    0.75790    0.24920    1.000
    N17      N        0.72680    0.74840    0.18840    1.000
    C79      C        0.76740    0.67330    0.18030    1.000
    H34      H        0.77750    0.65110    0.14090    1.000
    N18      N        0.79360    0.63080    0.23260    1.000
    N19      N        0.81880    0.61830    0.37080    1.000
    H35      H        0.82420    0.61940    0.41100    1.000
    H36      H        0.84310    0.57740    0.35010    1.000
    N20      N        0.55770    0.25190    0.03082    1.000
    N21      N        0.56330    0.32570    0.00044    1.000
    N22      N        0.93030    0.16750    0.05460    1.000
    N23      N        0.91560    0.10750    0.02310    1.000
    O17      O        0.66554    0.92962    0.05314    1.000
    O18      O        0.64750    0.86520    0.96024    1.000
    O19      O        0.45860    0.00140    0.81869    1.000
    O20      O        0.40793    0.13560    0.83814    1.000
    O21      O        0.67260    0.64820    0.98708    1.000
    O22      O        0.64900    0.71870    0.07355    1.000
    O23      O        0.44470    0.58960    0.18390    1.000
    O24      O        0.43550    0.43870    0.18670    1.000
    O25      O        0.69090    0.05330    0.22990    1.000
    O26      O        0.74250    0.95380    0.16787    1.000
    O27      O        0.78970    0.37940    0.25110    1.000
    O28      O        0.85620    0.43140    0.17880    1.000
    O29      O        0.18810    0.18400    0.01103    1.000
    O30      O        0.20172    0.19040    0.91187    1.000
    O31      O        0.00700    0.05800    0.77190    1.000
    O32      O        0.91480    0.98970    0.81060    1.000
    Zn5      Zn       0.69562    0.83512    0.11958    1.000
    Zn6      Zn       0.71910    0.76241    0.96288    1.000
    Zn7      Zn       0.62712    0.94588    0.24549    1.000
    Zn8      Zn       0.87591    0.53962    0.22870    1.000
    N24      N        0.72710    0.76080    0.20830    1.000
    C80      C        0.76980    0.68440    0.20390    1.000
    H37      H        0.78040    0.66510    0.16400    1.000
    N25      N        0.79920    0.63250    0.25190    1.000
    C81      C        0.78150    0.65120    0.30850    1.000
    C82      C        0.73900    0.73030    0.31760    1.000
    C83      C        0.71210    0.78160    0.26780    1.000
    N26      N        0.67480    0.85750    0.28650    1.000
    C84      C        0.67920    0.84550    0.34880    1.000
    H38      H        0.65710    0.88820    0.37520    1.000
    N27      N        0.71660    0.76970    0.37060    1.000
    N28      N        0.79910    0.59360    0.36010    1.000
    H39      H        0.82350    0.54110    0.35590    1.000
    H40      H        0.78570    0.61020    0.39630    1.000
    C85      C        0.63980    0.57130    0.49961    1.000
    C86      C        0.59450    0.48840    0.47852    1.000
    C87      C        0.59490    0.40750    0.51424    1.000
    H41      H        0.62230    0.40480    0.55250    1.000
    C88      C        0.55440    0.33040    0.49267    1.000
    C89      C        0.50970    0.33570    0.43999    1.000
    H42      H        0.48170    0.28270    0.42660    1.000
    C90      C        0.50560    0.41710    0.40694    1.000
    C91      C        0.55000    0.49250    0.42527    1.000
    H43      H        0.54980    0.54770    0.40080    1.000
    C92      C        0.45510    0.42770    0.35110    1.000
    C93      C        0.56110    0.09080    0.53740    1.000
    C94      C        0.51750    0.08360    0.58630    1.000
    H44      H        0.48970    0.13600    0.59770    1.000
    C95      C        0.51470    0.00020    0.61830    1.000
    C96      C        0.55750    0.92510    0.60350    1.000
    H45      H        0.55710    0.86890    0.62680    1.000
    C97      C        0.60110    0.93170    0.55450    1.000
    C98      C        0.60200    0.01460    0.52060    1.000
    H46      H        0.63040    0.01890    0.48620    1.000
    C99      C        0.64380    0.84900    0.53740    1.000
    C100     C        0.46030    0.98880    0.66810    1.000
    C101     C        0.73510    0.46730    0.68920    1.000
    C102     C        0.78090    0.38840    0.66790    1.000
    C103     C        0.77950    0.30000    0.69660    1.000
    H47      H        0.75000    0.28950    0.72970    1.000
    C104     C        0.82240    0.22820    0.67560    1.000
    C105     C        0.86610    0.24320    0.62880    1.000
    H48      H        0.89440    0.19300    0.61450    1.000
    C106     C        0.86950    0.32990    0.60240    1.000
    C107     C        0.82580    0.40300    0.62100    1.000
    H49      H        0.82700    0.46250    0.60150    1.000
    C108     C        0.82290    0.13300    0.70520    1.000
    C109     C        0.97150    0.38880    0.47860    1.000
    C110     C        0.94940    0.42450    0.42220    1.000
    H50      H        0.90190    0.44880    0.41490    1.000
    C111     C        0.99610    0.42480    0.37660    1.000
    C112     C        0.06630    0.39090    0.38710    1.000
    H51      H        0.09830    0.39070    0.35500    1.000
    C113     C        0.08930    0.35800    0.44400    1.000
    C114     C        0.04180    0.35620    0.49040    1.000
    H52      H        0.05720    0.33300    0.52980    1.000
    C115     C        0.16620    0.32580    0.45590    1.000
    C116     C        0.97250    0.46010    0.31420    1.000
    N29      N        0.69050    0.67570    0.78120    1.000
    C117     C        0.69770    0.68790    0.84190    1.000
    H53      H        0.67410    0.64350    0.86600    1.000
    N30      N        0.73460    0.75590    0.87190    1.000
    C118     C        0.77320    0.82050    0.84090    1.000
    C119     C        0.76790    0.81450    0.77740    1.000
    C120     C        0.72520    0.74210    0.74920    1.000
    N31      N        0.72680    0.75160    0.68840    1.000
    C121     C        0.76740    0.82670    0.68030    1.000
    H54      H        0.77750    0.84890    0.64090    1.000
    N32      N        0.79360    0.86920    0.73260    1.000
    N33      N        0.81880    0.88170    0.87080    1.000
    H55      H        0.82420    0.88060    0.91100    1.000
    H56      H        0.84310    0.92260    0.85010    1.000
    N34      N        0.55770    0.24810    0.53082    1.000
    N35      N        0.56330    0.17430    0.50044    1.000
    N36      N        0.93030    0.33250    0.55460    1.000
    N37      N        0.91560    0.39250    0.52310    1.000
    O33      O        0.66554    0.57038    0.55314    1.000
    O34      O        0.64750    0.63480    0.46024    1.000
    O35      O        0.45860    0.49860    0.31869    1.000
    O36      O        0.40793    0.36440    0.33814    1.000
    O37      O        0.67260    0.85180    0.48708    1.000
    O38      O        0.64900    0.78130    0.57355    1.000
    O39      O        0.44470    0.91040    0.68390    1.000
    O40      O        0.43550    0.06130    0.68670    1.000
    O41      O        0.69090    0.44670    0.72990    1.000
    O42      O        0.74250    0.54620    0.66787    1.000
    O43      O        0.78970    0.12060    0.75110    1.000
    O44      O        0.85620    0.06860    0.67880    1.000
    O45      O        0.18810    0.31600    0.51103    1.000
    O46      O        0.20172    0.30960    0.41187    1.000
    O47      O        0.00700    0.44200    0.27190    1.000
    O48      O        0.91480    0.51030    0.31060    1.000
    Zn9      Zn       0.69562    0.66488    0.61958    1.000
    Zn10     Zn       0.71910    0.73759    0.46288    1.000
    Zn11     Zn       0.62712    0.55412    0.74549    1.000
    Zn12     Zn       0.87591    0.96038    0.72870    1.000
    N38      N        0.72710    0.73920    0.70830    1.000
    C122     C        0.76980    0.81560    0.70390    1.000
    H57      H        0.78040    0.83490    0.66400    1.000
    N39      N        0.79920    0.86750    0.75190    1.000
    C123     C        0.78150    0.84880    0.80850    1.000
    C124     C        0.73900    0.76970    0.81760    1.000
    C125     C        0.71210    0.71840    0.76780    1.000
    N40      N        0.67480    0.64250    0.78650    1.000
    C126     C        0.67920    0.65450    0.84880    1.000
    H58      H        0.65710    0.61180    0.87520    1.000
    N41      N        0.71660    0.73030    0.87060    1.000
    N42      N        0.79910    0.90640    0.86010    1.000
    H59      H        0.82350    0.95890    0.85590    1.000
    H60      H        0.78570    0.88980    0.89630    1.000
    C127     C        0.36020    0.07130    0.00039    1.000
    C128     C        0.40550    0.98840    0.02148    1.000
    C129     C        0.40510    0.90750    0.98576    1.000
    H61      H        0.37770    0.90480    0.94750    1.000
    C130     C        0.44560    0.83040    0.00733    1.000
    C131     C        0.49030    0.83570    0.06001    1.000
    H62      H        0.51830    0.78270    0.07340    1.000
    C132     C        0.49440    0.91710    0.09306    1.000
    C133     C        0.45000    0.99250    0.07473    1.000
    H63      H        0.45020    0.04770    0.09920    1.000
    C134     C        0.54490    0.92770    0.14890    1.000
    C135     C        0.43890    0.59080    0.96260    1.000
    C136     C        0.48250    0.58360    0.91370    1.000
    H64      H        0.51030    0.63600    0.90230    1.000
    C137     C        0.48530    0.50020    0.88170    1.000
    C138     C        0.44250    0.42510    0.89650    1.000
    H65      H        0.44290    0.36890    0.87320    1.000
    C139     C        0.39890    0.43170    0.94550    1.000
    C140     C        0.39800    0.51460    0.97940    1.000
    H66      H        0.36960    0.51890    0.01380    1.000
    C141     C        0.35620    0.34900    0.96260    1.000
    C142     C        0.53970    0.48880    0.83190    1.000
    C143     C        0.26490    0.96730    0.81080    1.000
    C144     C        0.21910    0.88840    0.83210    1.000
    C145     C        0.22050    0.80000    0.80340    1.000
    H67      H        0.25000    0.78950    0.77030    1.000
    C146     C        0.17760    0.72820    0.82440    1.000
    C147     C        0.13390    0.74320    0.87120    1.000
    H68      H        0.10560    0.69300    0.88550    1.000
    C148     C        0.13050    0.82990    0.89760    1.000
    C149     C        0.17420    0.90300    0.87900    1.000
    H69      H        0.17300    0.96250    0.89850    1.000
    C150     C        0.17710    0.63300    0.79480    1.000
    C151     C        0.02850    0.88880    0.02140    1.000
    C152     C        0.05060    0.92450    0.07780    1.000
    H70      H        0.09810    0.94880    0.08510    1.000
    C153     C        0.00390    0.92480    0.12340    1.000
    C154     C        0.93370    0.89090    0.11290    1.000
    H71      H        0.90170    0.89070    0.14500    1.000
    C155     C        0.91070    0.85800    0.05600    1.000
    C156     C        0.95820    0.85620    0.00960    1.000
    H72      H        0.94280    0.83300    0.97020    1.000
    C157     C        0.83380    0.82580    0.04410    1.000
    C158     C        0.02750    0.96010    0.18580    1.000
    N43      N        0.30950    0.17570    0.71880    1.000
    C159     C        0.30230    0.18790    0.65810    1.000
    H73      H        0.32590    0.14350    0.63400    1.000
    N44      N        0.26540    0.25590    0.62810    1.000
    C160     C        0.22680    0.32050    0.65910    1.000
    C161     C        0.23210    0.31450    0.72260    1.000
    C162     C        0.27480    0.24210    0.75080    1.000
    N45      N        0.27320    0.25160    0.81160    1.000
    C163     C        0.23260    0.32670    0.81970    1.000
    H74      H        0.22250    0.34890    0.85910    1.000
    N46      N        0.20640    0.36920    0.76740    1.000
    N47      N        0.18120    0.38170    0.62920    1.000
    H75      H        0.17580    0.38060    0.58900    1.000
    H76      H        0.15690    0.42260    0.64990    1.000
    N48      N        0.44230    0.74810    0.96918    1.000
    N49      N        0.43670    0.67430    0.99956    1.000
    N50      N        0.06970    0.83250    0.94540    1.000
    N51      N        0.08440    0.89250    0.97690    1.000
    O49      O        0.33446    0.07038    0.94686    1.000
    O50      O        0.35250    0.13480    0.03976    1.000
    O51      O        0.54140    0.99860    0.18131    1.000
    O52      O        0.59207    0.86440    0.16186    1.000
    O53      O        0.32740    0.35180    0.01292    1.000
    O54      O        0.35100    0.28130    0.92645    1.000
    O55      O        0.55530    0.41040    0.81610    1.000
    O56      O        0.56450    0.56130    0.81330    1.000
    O57      O        0.30910    0.94670    0.77010    1.000
    O58      O        0.25750    0.04620    0.83213    1.000
    O59      O        0.21030    0.62060    0.74890    1.000
    O60      O        0.14380    0.56860    0.82120    1.000
    O61      O        0.81190    0.81600    0.98897    1.000
    O62      O        0.79828    0.80960    0.08813    1.000
    O63      O        0.99300    0.94200    0.22810    1.000
    O64      O        0.08520    0.01030    0.18940    1.000
    Zn13     Zn       0.30438    0.16488    0.88042    1.000
    Zn14     Zn       0.28090    0.23759    0.03712    1.000
    Zn15     Zn       0.37288    0.05412    0.75451    1.000
    Zn16     Zn       0.12409    0.46038    0.77130    1.000
    N52      N        0.27290    0.23920    0.79170    1.000
    C164     C        0.23020    0.31560    0.79610    1.000
    H77      H        0.21960    0.33490    0.83600    1.000
    N53      N        0.20080    0.36750    0.74810    1.000
    C165     C        0.21850    0.34880    0.69150    1.000
    C166     C        0.26100    0.26970    0.68240    1.000
    C167     C        0.28790    0.21840    0.73220    1.000
    N54      N        0.32520    0.14250    0.71350    1.000
    C168     C        0.32080    0.15450    0.65120    1.000
    H78      H        0.34290    0.11180    0.62480    1.000
    N55      N        0.28340    0.23030    0.62940    1.000
    N56      N        0.20090    0.40640    0.63990    1.000
    H79      H        0.17650    0.45890    0.64410    1.000
    H80      H        0.21430    0.38980    0.60370    1.000
