# CIF file generated by openbabel 3.1.0, see https://openbabel.org
data_I
_chemical_name_common 'image0'
_cell_length_a 24.0569
_cell_length_b 16.084
_cell_length_c 16.5679
_cell_angle_alpha 90
_cell_angle_beta 132.762
_cell_angle_gamma 90
_space_group_name_H-M_alt 'P 1'
_space_group_name_Hall 'P 1'
loop_
    _symmetry_equiv_pos_as_xyz
    x,y,z
loop_
    _atom_site_label
    _atom_site_type_symbol
    _atom_site_fract_x
    _atom_site_fract_y
    _atom_site_fract_z
    _atom_site_occupancy
    C1       C        0.00870    0.85610    0.35830    1.000
    H1       H        0.05760    0.84660    0.42870    1.000
    C2       C        0.98560    0.80590    0.27360    1.000
    H2       H        0.01730    0.76260    0.28550    1.000
    C3       C        0.91460    0.81970    0.16950    1.000
    C4       C        0.87110    0.88330    0.15740    1.000
    H3       H        0.82280    0.89560    0.08750    1.000
    C5       C        0.89930    0.92900    0.24920    1.000
    H4       H        0.86830    0.97150    0.24080    1.000
    C6       C        0.03690    0.67780    0.10890    1.000
    H5       H        0.08800    0.68910    0.14510    1.000
    C7       C        0.00030    0.73550    0.11840    1.000
    H6       H        0.02440    0.78610    0.15690    1.000
    C8       C        0.92580    0.71820    0.06960    1.000
    C9       C        0.89260    0.64500    0.00740    1.000
    H7       H        0.84130    0.63230    0.96920    1.000
    C10      C        0.93460    0.59200    0.00210    1.000
    H8       H        0.91110    0.54240    0.96040    1.000
    C11      C        0.95080    0.15040    0.34470    1.000
    H9       H        0.99710    0.13790    0.36370    1.000
    C12      C        0.91010    0.21960    0.27990    1.000
    H10      H        0.92830    0.25330    0.25480    1.000
    C13      C        0.84260    0.23930    0.25180    1.000
    C14      C        0.81850    0.18690    0.28990    1.000
    H11      H        0.77270    0.19780    0.27270    1.000
    C15      C        0.86140    0.12020    0.35170    1.000
    H12      H        0.84320    0.08490    0.37540    1.000
    C16      C        0.64140    0.44550    0.02050    1.000
    H13      H        0.61950    0.48390    0.96210    1.000
    C17      C        0.70560    0.40400    0.05940    1.000
    H14      H        0.72660    0.41340    0.02800    1.000
    C18      C        0.73960    0.34740    0.14680    1.000
    C19      C        0.70620    0.33840    0.18920    1.000
    H15      H        0.72710    0.30220    0.24930    1.000
    C20      C        0.64170    0.38400    0.14090    1.000
    H16      H        0.61960    0.37680    0.17090    1.000
    C21      C        0.19610    0.57200    0.04870    1.000
    H17      H        0.22620    0.52670    0.09620    1.000
    C22      C        0.22350    0.62000    0.01260    1.000
    H18      H        0.27020    0.60700    0.03310    1.000
    C23      C        0.18010    0.68820    0.94490    1.000
    C24      C        0.11330    0.70400    0.91930    1.000
    H19      H        0.08340    0.75080    0.87520    1.000
    C25      C        0.09010    0.65260    0.95730    1.000
    H20      H        0.04360    0.66490    0.93760    1.000
    C26      C        0.15410    0.89920    0.71360    1.000
    H21      H        0.17830    0.94360    0.70990    1.000
    C27      C        0.19770    0.85140    0.80670    1.000
    H22      H        0.25010    0.86260    0.86480    1.000
    C28      C        0.16380    0.78660    0.81470    1.000
    C29      C        0.08650    0.77210    0.72400    1.000
    H23      H        0.06080    0.72770    0.72460    1.000
    C30      C        0.04930    0.82360    0.63470    1.000
    H24      H        0.99740    0.81220    0.57320    1.000
    C31      C        0.21430    0.35710    0.20850    1.000
    H25      H        0.22290    0.38000    0.26900    1.000
    C32      C        0.25820    0.28930    0.22930    1.000
    H26      H        0.29430    0.26600    0.30080    1.000
    C33      C        0.24770    0.25720    0.14340    1.000
    C34      C        0.19270    0.29360    0.03880    1.000
    H27      H        0.18420    0.27280    0.97740    1.000
    C35      C        0.15260    0.35820    0.02760    1.000
    H28      H        0.11550    0.38190    0.95650    1.000
    C36      C        0.46840    0.14590    0.43170    1.000
    H29      H        0.50260    0.17220    0.50150    1.000
    C37      C        0.40530    0.18950    0.34510    1.000
    H30      H        0.39790    0.24520    0.35520    1.000
    C38      C        0.35290    0.15180    0.24340    1.000
    C39      C        0.37140    0.07240    0.23270    1.000
    H31      H        0.33960    0.04610    0.16280    1.000
    C40      C        0.43450    0.03300    0.32190    1.000
    H32      H        0.44380    0.97810    0.31230    1.000
    Cd1      Cd       0.00275    0.99065    0.49744    1.000
    Cd2      Cd       0.08613    0.50076    0.08056    1.000
    N1       N        0.00660    0.60570    0.05210    1.000
    N2       N        0.88550    0.77120    0.07840    1.000
    H33      H        0.83650    0.77500    0.02100    1.000
    N3       N        0.96750    0.91680    0.34900    1.000
    N4       N        0.92750    0.09980    0.38220    1.000
    N5       N        0.80460    0.30890    0.18520    1.000
    H34      H        0.82600    0.33240    0.16400    1.000
    N6       N        0.60740    0.43590    0.05860    1.000
    N7       N        0.12940    0.58520    0.02110    1.000
    N8       N        0.20710    0.73600    0.90840    1.000
    H35      H        0.25620    0.73460    0.94780    1.000
    N9       N        0.08030    0.88820    0.62760    1.000
    N10      N        0.16130    0.39230    0.11100    1.000
    N11      N        0.28700    0.18900    0.15060    1.000
    H36      H        0.26700    0.16650    0.08750    1.000
    N12      N        0.48450    0.06650    0.42270    1.000
    C41      C        0.50870    0.64390    0.85830    1.000
    H37      H        0.55760    0.65340    0.92870    1.000
    C42      C        0.48560    0.69410    0.77360    1.000
    H38      H        0.51730    0.73740    0.78550    1.000
    C43      C        0.41460    0.68030    0.66950    1.000
    C44      C        0.37110    0.61670    0.65740    1.000
    H39      H        0.32280    0.60440    0.58750    1.000
    C45      C        0.39930    0.57100    0.74920    1.000
    H40      H        0.36830    0.52850    0.74080    1.000
    C46      C        0.53690    0.82220    0.60890    1.000
    H41      H        0.58800    0.81090    0.64510    1.000
    C47      C        0.50030    0.76450    0.61840    1.000
    H42      H        0.52440    0.71390    0.65690    1.000
    C48      C        0.42580    0.78180    0.56960    1.000
    C49      C        0.39260    0.85500    0.50740    1.000
    H43      H        0.34130    0.86770    0.46920    1.000
    C50      C        0.43460    0.90800    0.50210    1.000
    H44      H        0.41110    0.95760    0.46040    1.000
    C51      C        0.45080    0.34960    0.84470    1.000
    H45      H        0.49710    0.36210    0.86370    1.000
    C52      C        0.41010    0.28040    0.77990    1.000
    H46      H        0.42830    0.24670    0.75480    1.000
    C53      C        0.34260    0.26070    0.75180    1.000
    C54      C        0.31850    0.31310    0.78990    1.000
    H47      H        0.27270    0.30220    0.77270    1.000
    C55      C        0.36140    0.37980    0.85170    1.000
    H48      H        0.34320    0.41510    0.87540    1.000
    C56      C        0.14140    0.05450    0.52050    1.000
    H49      H        0.11950    0.01610    0.46210    1.000
    C57      C        0.20560    0.09600    0.55940    1.000
    H50      H        0.22660    0.08660    0.52800    1.000
    C58      C        0.23960    0.15260    0.64680    1.000
    C59      C        0.20620    0.16160    0.68920    1.000
    H51      H        0.22710    0.19780    0.74930    1.000
    C60      C        0.14170    0.11600    0.64090    1.000
    H52      H        0.11960    0.12320    0.67090    1.000
    C61      C        0.69610    0.92800    0.54870    1.000
    H53      H        0.72620    0.97330    0.59620    1.000
    C62      C        0.72350    0.88000    0.51260    1.000
    H54      H        0.77020    0.89300    0.53310    1.000
    C63      C        0.68010    0.81180    0.44490    1.000
    C64      C        0.61330    0.79600    0.41930    1.000
    H55      H        0.58340    0.74920    0.37520    1.000
    C65      C        0.59010    0.84740    0.45730    1.000
    H56      H        0.54360    0.83510    0.43760    1.000
    C66      C        0.65410    0.60080    0.21360    1.000
    H57      H        0.67830    0.55640    0.20990    1.000
    C67      C        0.69770    0.64860    0.30670    1.000
    H58      H        0.75010    0.63740    0.36480    1.000
    C68      C        0.66380    0.71340    0.31470    1.000
    C69      C        0.58650    0.72790    0.22400    1.000
    H59      H        0.56080    0.77230    0.22460    1.000
    C70      C        0.54930    0.67640    0.13470    1.000
    H60      H        0.49740    0.68780    0.07320    1.000
    C71      C        0.71430    0.14290    0.70850    1.000
    H61      H        0.72290    0.12000    0.76900    1.000
    C72      C        0.75820    0.21070    0.72930    1.000
    H62      H        0.79430    0.23400    0.80080    1.000
    C73      C        0.74770    0.24280    0.64340    1.000
    C74      C        0.69270    0.20640    0.53880    1.000
    H63      H        0.68420    0.22720    0.47740    1.000
    C75      C        0.65260    0.14180    0.52760    1.000
    H64      H        0.61550    0.11810    0.45650    1.000
    C76      C        0.96840    0.35410    0.93170    1.000
    H65      H        0.00260    0.32780    0.00150    1.000
    C77      C        0.90530    0.31050    0.84510    1.000
    H66      H        0.89790    0.25480    0.85520    1.000
    C78      C        0.85290    0.34820    0.74340    1.000
    C79      C        0.87140    0.42760    0.73270    1.000
    H67      H        0.83960    0.45390    0.66280    1.000
    C80      C        0.93450    0.46700    0.82190    1.000
    H68      H        0.94380    0.52190    0.81230    1.000
    Cd3      Cd       0.50275    0.50935    0.99744    1.000
    Cd4      Cd       0.58613    0.99924    0.58056    1.000
    N13      N        0.50660    0.89430    0.55210    1.000
    N14      N        0.38550    0.72880    0.57840    1.000
    H69      H        0.33650    0.72500    0.52100    1.000
    N15      N        0.46750    0.58320    0.84900    1.000
    N16      N        0.42750    0.40020    0.88220    1.000
    N17      N        0.30460    0.19110    0.68520    1.000
    H70      H        0.32600    0.16760    0.66400    1.000
    N18      N        0.10740    0.06410    0.55860    1.000
    N19      N        0.62940    0.91480    0.52110    1.000
    N20      N        0.70710    0.76400    0.40840    1.000
    H71      H        0.75620    0.76540    0.44780    1.000
    N21      N        0.58030    0.61180    0.12760    1.000
    N22      N        0.66130    0.10770    0.61100    1.000
    N23      N        0.78700    0.31100    0.65060    1.000
    H72      H        0.76700    0.33350    0.58750    1.000
    N24      N        0.98450    0.43350    0.92270    1.000
    C81      C        0.50870    0.35610    0.35830    1.000
    H73      H        0.55760    0.34660    0.42870    1.000
    C82      C        0.48560    0.30590    0.27360    1.000
    H74      H        0.51730    0.26260    0.28550    1.000
    C83      C        0.41460    0.31970    0.16950    1.000
    C84      C        0.37110    0.38330    0.15740    1.000
    H75      H        0.32280    0.39560    0.08750    1.000
    C85      C        0.39930    0.42900    0.24920    1.000
    H76      H        0.36830    0.47150    0.24080    1.000
    C86      C        0.53690    0.17780    0.10890    1.000
    H77      H        0.58800    0.18910    0.14510    1.000
    C87      C        0.50030    0.23550    0.11840    1.000
    H78      H        0.52440    0.28610    0.15690    1.000
    C88      C        0.42580    0.21820    0.06960    1.000
    C89      C        0.39260    0.14500    0.00740    1.000
    H79      H        0.34130    0.13230    0.96920    1.000
    C90      C        0.43460    0.09200    0.00210    1.000
    H80      H        0.41110    0.04240    0.96040    1.000
    C91      C        0.45080    0.65040    0.34470    1.000
    H81      H        0.49710    0.63790    0.36370    1.000
    C92      C        0.41010    0.71960    0.27990    1.000
    H82      H        0.42830    0.75330    0.25480    1.000
    C93      C        0.34260    0.73930    0.25180    1.000
    C94      C        0.31850    0.68690    0.28990    1.000
    H83      H        0.27270    0.69780    0.27270    1.000
    C95      C        0.36140    0.62020    0.35170    1.000
    H84      H        0.34320    0.58490    0.37540    1.000
    C96      C        0.14140    0.94550    0.02050    1.000
    H85      H        0.11950    0.98390    0.96210    1.000
    C97      C        0.20560    0.90400    0.05940    1.000
    H86      H        0.22660    0.91340    0.02800    1.000
    C98      C        0.23960    0.84740    0.14680    1.000
    C99      C        0.20620    0.83840    0.18920    1.000
    H87      H        0.22710    0.80220    0.24930    1.000
    C100     C        0.14170    0.88400    0.14090    1.000
    H88      H        0.11960    0.87680    0.17090    1.000
    C101     C        0.69610    0.07200    0.04870    1.000
    H89      H        0.72620    0.02670    0.09620    1.000
    C102     C        0.72350    0.12000    0.01260    1.000
    H90      H        0.77020    0.10700    0.03310    1.000
    C103     C        0.68010    0.18820    0.94490    1.000
    C104     C        0.61330    0.20400    0.91930    1.000
    H91      H        0.58340    0.25080    0.87520    1.000
    C105     C        0.59010    0.15260    0.95730    1.000
    H92      H        0.54360    0.16490    0.93760    1.000
    C106     C        0.65410    0.39920    0.71360    1.000
    H93      H        0.67830    0.44360    0.70990    1.000
    C107     C        0.69770    0.35140    0.80670    1.000
    H94      H        0.75010    0.36260    0.86480    1.000
    C108     C        0.66380    0.28660    0.81470    1.000
    C109     C        0.58650    0.27210    0.72400    1.000
    H95      H        0.56080    0.22770    0.72460    1.000
    C110     C        0.54930    0.32360    0.63470    1.000
    H96      H        0.49740    0.31220    0.57320    1.000
    C111     C        0.71430    0.85710    0.20850    1.000
    H97      H        0.72290    0.88000    0.26900    1.000
    C112     C        0.75820    0.78930    0.22930    1.000
    H98      H        0.79430    0.76600    0.30080    1.000
    C113     C        0.74770    0.75720    0.14340    1.000
    C114     C        0.69270    0.79360    0.03880    1.000
    H99      H        0.68420    0.77280    0.97740    1.000
    C115     C        0.65260    0.85820    0.02760    1.000
    H100     H        0.61550    0.88190    0.95650    1.000
    C116     C        0.96840    0.64590    0.43170    1.000
    H101     H        0.00260    0.67220    0.50150    1.000
    C117     C        0.90530    0.68950    0.34510    1.000
    H102     H        0.89790    0.74520    0.35520    1.000
    C118     C        0.85290    0.65180    0.24340    1.000
    C119     C        0.87140    0.57240    0.23270    1.000
    H103     H        0.83960    0.54610    0.16280    1.000
    C120     C        0.93450    0.53300    0.32190    1.000
    H104     H        0.94380    0.47810    0.31230    1.000
    Cd5      Cd       0.50275    0.49065    0.49744    1.000
    Cd6      Cd       0.58613    0.00076    0.08056    1.000
    N25      N        0.50660    0.10570    0.05210    1.000
    N26      N        0.38550    0.27120    0.07840    1.000
    H105     H        0.33650    0.27500    0.02100    1.000
    N27      N        0.46750    0.41680    0.34900    1.000
    N28      N        0.42750    0.59980    0.38220    1.000
    N29      N        0.30460    0.80890    0.18520    1.000
    H106     H        0.32600    0.83240    0.16400    1.000
    N30      N        0.10740    0.93590    0.05860    1.000
    N31      N        0.62940    0.08520    0.02110    1.000
    N32      N        0.70710    0.23600    0.90840    1.000
    H107     H        0.75620    0.23460    0.94780    1.000
    N33      N        0.58030    0.38820    0.62760    1.000
    N34      N        0.66130    0.89230    0.11100    1.000
    N35      N        0.78700    0.68900    0.15060    1.000
    H108     H        0.76700    0.66650    0.08750    1.000
    N36      N        0.98450    0.56650    0.42270    1.000
    C121     C        0.00870    0.14390    0.85830    1.000
    H109     H        0.05760    0.15340    0.92870    1.000
    C122     C        0.98560    0.19410    0.77360    1.000
    H110     H        0.01730    0.23740    0.78550    1.000
    C123     C        0.91460    0.18030    0.66950    1.000
    C124     C        0.87110    0.11670    0.65740    1.000
    H111     H        0.82280    0.10440    0.58750    1.000
    C125     C        0.89930    0.07100    0.74920    1.000
    H112     H        0.86830    0.02850    0.74080    1.000
    C126     C        0.03690    0.32220    0.60890    1.000
    H113     H        0.08800    0.31090    0.64510    1.000
    C127     C        0.00030    0.26450    0.61840    1.000
    H114     H        0.02440    0.21390    0.65690    1.000
    C128     C        0.92580    0.28180    0.56960    1.000
    C129     C        0.89260    0.35500    0.50740    1.000
    H115     H        0.84130    0.36770    0.46920    1.000
    C130     C        0.93460    0.40800    0.50210    1.000
    H116     H        0.91110    0.45760    0.46040    1.000
    C131     C        0.95080    0.84960    0.84470    1.000
    H117     H        0.99710    0.86210    0.86370    1.000
    C132     C        0.91010    0.78040    0.77990    1.000
    H118     H        0.92830    0.74670    0.75480    1.000
    C133     C        0.84260    0.76070    0.75180    1.000
    C134     C        0.81850    0.81310    0.78990    1.000
    H119     H        0.77270    0.80220    0.77270    1.000
    C135     C        0.86140    0.87980    0.85170    1.000
    H120     H        0.84320    0.91510    0.87540    1.000
    C136     C        0.64140    0.55450    0.52050    1.000
    H121     H        0.61950    0.51610    0.46210    1.000
    C137     C        0.70560    0.59600    0.55940    1.000
    H122     H        0.72660    0.58660    0.52800    1.000
    C138     C        0.73960    0.65260    0.64680    1.000
    C139     C        0.70620    0.66160    0.68920    1.000
    H123     H        0.72710    0.69780    0.74930    1.000
    C140     C        0.64170    0.61600    0.64090    1.000
    H124     H        0.61960    0.62320    0.67090    1.000
    C141     C        0.19610    0.42800    0.54870    1.000
    H125     H        0.22620    0.47330    0.59620    1.000
    C142     C        0.22350    0.38000    0.51260    1.000
    H126     H        0.27020    0.39300    0.53310    1.000
    C143     C        0.18010    0.31180    0.44490    1.000
    C144     C        0.11330    0.29600    0.41930    1.000
    H127     H        0.08340    0.24920    0.37520    1.000
    C145     C        0.09010    0.34740    0.45730    1.000
    H128     H        0.04360    0.33510    0.43760    1.000
    C146     C        0.15410    0.10080    0.21360    1.000
    H129     H        0.17830    0.05640    0.20990    1.000
    C147     C        0.19770    0.14860    0.30670    1.000
    H130     H        0.25010    0.13740    0.36480    1.000
    C148     C        0.16380    0.21340    0.31470    1.000
    C149     C        0.08650    0.22790    0.22400    1.000
    H131     H        0.06080    0.27230    0.22460    1.000
    C150     C        0.04930    0.17640    0.13470    1.000
    H132     H        0.99740    0.18780    0.07320    1.000
    C151     C        0.21430    0.64290    0.70850    1.000
    H133     H        0.22290    0.62000    0.76900    1.000
    C152     C        0.25820    0.71070    0.72930    1.000
    H134     H        0.29430    0.73400    0.80080    1.000
    C153     C        0.24770    0.74280    0.64340    1.000
    C154     C        0.19270    0.70640    0.53880    1.000
    H135     H        0.18420    0.72720    0.47740    1.000
    C155     C        0.15260    0.64180    0.52760    1.000
    H136     H        0.11550    0.61810    0.45650    1.000
    C156     C        0.46840    0.85410    0.93170    1.000
    H137     H        0.50260    0.82780    0.00150    1.000
    C157     C        0.40530    0.81050    0.84510    1.000
    H138     H        0.39790    0.75480    0.85520    1.000
    C158     C        0.35290    0.84820    0.74340    1.000
    C159     C        0.37140    0.92760    0.73270    1.000
    H139     H        0.33960    0.95390    0.66280    1.000
    C160     C        0.43450    0.96700    0.82190    1.000
    H140     H        0.44380    0.02190    0.81230    1.000
    Cd7      Cd       0.00275    0.00935    0.99744    1.000
    Cd8      Cd       0.08613    0.49924    0.58056    1.000
    N37      N        0.00660    0.39430    0.55210    1.000
    N38      N        0.88550    0.22880    0.57840    1.000
    H141     H        0.83650    0.22500    0.52100    1.000
    N39      N        0.96750    0.08320    0.84900    1.000
    N40      N        0.92750    0.90020    0.88220    1.000
    N41      N        0.80460    0.69110    0.68520    1.000
    H142     H        0.82600    0.66760    0.66400    1.000
    N42      N        0.60740    0.56410    0.55860    1.000
    N43      N        0.12940    0.41480    0.52110    1.000
    N44      N        0.20710    0.26400    0.40840    1.000
    H143     H        0.25620    0.26540    0.44780    1.000
    N45      N        0.08030    0.11180    0.12760    1.000
    N46      N        0.16130    0.60770    0.61100    1.000
    N47      N        0.28700    0.81100    0.65060    1.000
    H144     H        0.26700    0.83350    0.58750    1.000
    N48      N        0.48450    0.93350    0.92270    1.000
