# CIF file generated by openbabel 3.1.0, see https://openbabel.org
data_I
_chemical_name_common 'RIBDEN_clean'
_cell_length_a 10.0523
_cell_length_b 10.0523
_cell_length_c 19.3284
_cell_angle_alpha 90
_cell_angle_beta 90
_cell_angle_gamma 103.952
_space_group_name_H-M_alt 'P 1'
_space_group_name_Hall 'P 1'
loop_
    _symmetry_equiv_pos_as_xyz
    x,y,z
loop_
    _atom_site_label
    _atom_site_type_symbol
    _atom_site_fract_x
    _atom_site_fract_y
    _atom_site_fract_z
    _atom_site_occupancy
    Co1      Co       0.80796    0.93720    0.73175    1.000
    Co2      Co       0.19204    0.06280    0.23175    1.000
    Co3      Co       0.06280    0.19204    0.76825    1.000
    Co4      Co       0.93720    0.80796    0.26825    1.000
    H1       H        0.50710    0.16550    0.74960    1.000
    H2       H        0.17970    0.21950    0.60320    1.000
    H3       H        0.49290    0.83450    0.24960    1.000
    H4       H        0.82030    0.78050    0.10320    1.000
    H5       H        0.83450    0.49290    0.75040    1.000
    H6       H        0.78050    0.82030    0.89680    1.000
    H7       H        0.16550    0.50710    0.25040    1.000
    H8       H        0.21950    0.17970    0.39680    1.000
    H9       H        0.44860    0.55140    0.75000    1.000
    H10      H        0.55140    0.44860    0.25000    1.000
    H11      H        0.91670    0.91670    0.50000    1.000
    H12      H        0.08330    0.08330    0.00000    1.000
    C1       C        0.30550    0.28690    0.75278    1.000
    C2       C        0.95640    0.01940    0.62620    1.000
    C3       C        0.54350    0.26190    0.74988    1.000
    C4       C        0.45505    0.34995    0.75013    1.000
    C5       C        0.03629    0.06431    0.56139    1.000
    C6       C        0.14880    0.17360    0.56105    1.000
    C7       C        0.69450    0.71310    0.25278    1.000
    C8       C        0.04360    0.98060    0.12620    1.000
    C9       C        0.45650    0.73810    0.24988    1.000
    C10      C        0.54495    0.65005    0.25013    1.000
    C11      C        0.96371    0.93569    0.06139    1.000
    C12      C        0.85120    0.82640    0.06105    1.000
    C13      C        0.71310    0.69450    0.74722    1.000
    C14      C        0.98060    0.04360    0.87380    1.000
    C15      C        0.73810    0.45650    0.75012    1.000
    C16      C        0.65005    0.54495    0.74987    1.000
    C17      C        0.93569    0.96371    0.93861    1.000
    C18      C        0.82640    0.85120    0.93895    1.000
    C19      C        0.28690    0.30550    0.24722    1.000
    C20      C        0.01940    0.95640    0.37380    1.000
    C21      C        0.26190    0.54350    0.25012    1.000
    C22      C        0.34995    0.45505    0.24987    1.000
    C23      C        0.06431    0.03629    0.43861    1.000
    C24      C        0.17360    0.14880    0.43895    1.000
    C25      C        0.77880    0.22120    0.75000    1.000
    C26      C        0.68450    0.31550    0.75000    1.000
    C27      C        0.50860    0.49140    0.75000    1.000
    C28      C        0.22120    0.77880    0.25000    1.000
    C29      C        0.31550    0.68450    0.25000    1.000
    C30      C        0.49140    0.50860    0.25000    1.000
    C31      C        0.99340    0.99340    0.50000    1.000
    C32      C        0.21780    0.21780    0.50000    1.000
    C33      C        0.33930    0.33930    0.50000    1.000
    C34      C        0.00660    0.00660    0.00000    1.000
    C35      C        0.78220    0.78220    0.00000    1.000
    C36      C        0.66070    0.66070    0.00000    1.000
    O1       O        0.21981    0.36113    0.74646    1.000
    O2       O        0.26335    0.15987    0.76265    1.000
    O3       O        0.84343    0.93297    0.62358    1.000
    O4       O        0.00570    0.06910    0.68231    1.000
    O5       O        0.72653    0.09799    0.73493    1.000
    O6       O        0.36120    0.40900    0.55443    1.000
    O7       O        0.78019    0.63887    0.24646    1.000
    O8       O        0.73665    0.84013    0.26265    1.000
    O9       O        0.15657    0.06703    0.12358    1.000
    O10      O        0.99430    0.93090    0.18231    1.000
    O11      O        0.27347    0.90201    0.23493    1.000
    O12      O        0.63880    0.59100    0.05443    1.000
    O13      O        0.63887    0.78019    0.75354    1.000
    O14      O        0.84013    0.73665    0.73735    1.000
    O15      O        0.06703    0.15657    0.87642    1.000
    O16      O        0.93090    0.99430    0.81769    1.000
    O17      O        0.90201    0.27347    0.76507    1.000
    O18      O        0.59100    0.63880    0.94557    1.000
    O19      O        0.36113    0.21981    0.25354    1.000
    O20      O        0.15987    0.26335    0.23735    1.000
    O21      O        0.93297    0.84343    0.37642    1.000
    O22      O        0.06910    0.00570    0.31769    1.000
    O23      O        0.09799    0.72653    0.26507    1.000
    O24      O        0.40900    0.36120    0.44557    1.000
