# CIF file generated by openbabel 3.1.0, see https://openbabel.org
data_I
_chemical_name_common 'YIWBEN_clean'
_cell_length_a 14.05
_cell_length_b 16.3488
_cell_length_c 16.602
_cell_angle_alpha 105.881
_cell_angle_beta 90
_cell_angle_gamma 115.448
_space_group_name_H-M_alt 'P 1'
_space_group_name_Hall 'P 1'
loop_
    _symmetry_equiv_pos_as_xyz
    x,y,z
loop_
    _atom_site_label
    _atom_site_type_symbol
    _atom_site_fract_x
    _atom_site_fract_y
    _atom_site_fract_z
    _atom_site_occupancy
    Cd1      Cd       0.04594    0.55838    0.91134    1.000
    Cd2      Cd       0.48756    0.44162    0.58866    1.000
    Cd3      Cd       0.95406    0.44162    0.08866    1.000
    Cd4      Cd       0.51244    0.55838    0.41134    1.000
    H1       H        0.24910    0.33440    0.48720    1.000
    H2       H        0.34520    0.54480    0.19970    1.000
    H3       H        0.08530    0.33440    0.98720    1.000
    H4       H        0.74860    0.66540    0.01000    1.000
    H5       H        0.07880    0.75740    0.29200    1.000
    H6       H        0.30810    0.97980    0.61650    1.000
    H7       H        0.37230    0.22640    0.43480    1.000
    H8       H        0.75850    0.31940    0.45120    1.000
    H9       H        0.32140    0.24260    0.20800    1.000
    H10      H        0.92120    0.24260    0.70800    1.000
    H11      H        0.66070    0.86000    0.14770    1.000
    H12      H        0.39110    0.27320    0.80580    1.000
    H13      H        0.43910    0.68060    0.04880    1.000
    H14      H        0.75050    0.11400    0.07110    1.000
    H15      H        0.67170    0.97980    0.11650    1.000
    H16      H        0.33930    0.14000    0.85230    1.000
    H17      H        0.65480    0.45520    0.80030    1.000
    H18      H        0.35780    0.46400    0.83610    1.000
    H19      H        0.25140    0.33460    0.99000    1.000
    H20      H        0.39550    0.66360    0.53210    1.000
    H21      H        0.89380    0.53600    0.66390    1.000
    H22      H        0.91680    0.66540    0.51000    1.000
    H23      H        0.75090    0.66560    0.51280    1.000
    H24      H        0.19930    0.86000    0.64770    1.000
    H25      H        0.81040    0.54420    0.18010    1.000
    H26      H        0.18530    0.54360    0.19540    1.000
    H27      H        0.22510    0.07940    0.15640    1.000
    H28      H        0.28450    0.06740    0.38770    1.000
    H29      H        0.53040    0.50960    0.84650    1.000
    H30      H        0.64220    0.53600    0.16390    1.000
    H31      H        0.64170    0.45640    0.30460    1.000
    H32      H        0.97920    0.50960    0.34650    1.000
    H33      H        0.60890    0.72680    0.19420    1.000
    H34      H        0.06030    0.63340    0.49480    1.000
    H35      H        0.71550    0.93260    0.61230    1.000
    H36      H        0.14570    0.92060    0.34360    1.000
    H37      H        0.26620    0.45580    0.31990    1.000
    H38      H        0.08320    0.33460    0.49000    1.000
    H39      H        0.42690    0.36660    0.00520    1.000
    H40      H        0.35830    0.54360    0.69540    1.000
    H41      H        0.14590    0.77360    0.06520    1.000
    H42      H        0.46960    0.49040    0.15350    1.000
    H43      H        0.69190    0.02020    0.38350    1.000
    H44      H        0.81470    0.45640    0.80460    1.000
    H45      H        0.24950    0.88600    0.92890    1.000
    H46      H        0.24150    0.68060    0.54880    1.000
    H47      H        0.80040    0.45520    0.30030    1.000
    H48      H        0.85410    0.22640    0.93480    1.000
    H49      H        0.63650    0.88600    0.42890    1.000
    H50      H        0.77490    0.92060    0.84360    1.000
    H51      H        0.36350    0.11400    0.57110    1.000
    H52      H        0.57310    0.63340    0.99480    1.000
    H53      H        0.10620    0.46400    0.33610    1.000
    H54      H        0.21710    0.93260    0.11230    1.000
    H55      H        0.91470    0.66560    0.01280    1.000
    H56      H        0.11790    0.72680    0.69420    1.000
    H57      H        0.93970    0.36660    0.50520    1.000
    H58      H        0.19960    0.54480    0.69970    1.000
    H59      H        0.56090    0.31940    0.95120    1.000
    H60      H        0.62770    0.77360    0.56520    1.000
    H61      H        0.32830    0.02020    0.88350    1.000
    H62      H        0.73380    0.54420    0.68010    1.000
    H63      H        0.18960    0.45580    0.81990    1.000
    H64      H        0.80070    0.14000    0.35230    1.000
    H65      H        0.88210    0.27320    0.30580    1.000
    H66      H        0.60450    0.33640    0.46790    1.000
    H67      H        0.73190    0.33640    0.96790    1.000
    H68      H        0.85430    0.07940    0.65640    1.000
    H69      H        0.78290    0.06740    0.88770    1.000
    H70      H        0.67860    0.75740    0.79200    1.000
    H71      H        0.02080    0.49040    0.65350    1.000
    H72      H        0.26810    0.66360    0.03210    1.000
    C1       C        0.12290    0.44180    0.59770    1.000
    C2       C        0.26070    0.49960    0.36670    1.000
    C3       C        0.35970    0.11960    0.62810    1.000
    C4       C        0.14850    0.89160    0.28760    1.000
    C5       C        0.13100    0.70540    0.84490    1.000
    C6       C        0.13840    0.37800    0.03180    1.000
    C7       C        0.76040    0.62200    0.46820    1.000
    C8       C        0.79310    0.49980    0.34510    1.000
    C9       C        0.84300    0.42380    0.56180    1.000
    C10      C        0.71320    0.37700    0.00820    1.000
    C11      C        0.75520    0.36460    0.49790    1.000
    C12      C        0.34180    0.50760    0.87530    1.000
    C13      C        0.31110    0.04480    0.73550    1.000
    C14      C        0.80330    0.50040    0.84730    1.000
    C15      C        0.33620    0.62300    0.49180    1.000
    C16      C        0.76110    0.50040    0.13330    1.000
    C17      C        0.69710    0.50040    0.34730    1.000
    C18      C        0.25690    0.10840    0.21240    1.000
    C19      C        0.24480    0.63540    0.50210    1.000
    C20      C        0.73370    0.04480    0.23550    1.000
    C21      C        0.24010    0.88040    0.87190    1.000
    C22      C        0.30290    0.49960    0.65270    1.000
    C23      C        0.41920    0.57620    0.93820    1.000
    C24      C        0.62330    0.78540    0.23260    1.000
    C25      C        0.68730    0.79360    0.75550    1.000
    C26      C        0.42650    0.44860    0.10310    1.000
    C27      C        0.02210    0.44860    0.60310    1.000
    C28      C        0.65810    0.86580    0.20490    1.000
    C29      C        0.05510    0.63940    0.13820    1.000
    C30      C        0.10630    0.79360    0.25550    1.000
    C31      C        0.20770    0.86580    0.70490    1.000
    C32      C        0.75070    0.94660    0.73350    1.000
    C33      C        0.85150    0.10840    0.71240    1.000
    C34      C        0.05890    0.58900    0.44530    1.000
    C35      C        0.68890    0.95520    0.26450    1.000
    C36      C        0.81850    0.20820    0.18650    1.000
    C37      C        0.26630    0.95520    0.76450    1.000
    C38      C        0.70830    0.89840    0.65020    1.000
    C39      C        0.28680    0.62300    0.99180    1.000
    C40      C        0.19590    0.94660    0.23350    1.000
    C41      C        0.65610    0.80220    0.62190    1.000
    C42      C        0.79230    0.13420    0.29510    1.000
    C43      C        0.68110    0.55820    0.90230    1.000
    C44      C        0.83420    0.49240    0.62470    1.000
    C45      C        0.86150    0.62220    0.46700    1.000
    C46      C        0.87710    0.55820    0.40230    1.000
    C47      C        0.58080    0.42380    0.06180    1.000
    C48      C        0.64030    0.88040    0.37190    1.000
    C49      C        0.35710    0.25380    0.33020    1.000
    C50      C        0.80410    0.05340    0.76650    1.000
    C51      C        0.86160    0.62200    0.96820    1.000
    C52      C        0.85390    0.19780    0.87810    1.000
    C53      C        0.60940    0.36460    0.99790    1.000
    C54      C        0.65820    0.49240    0.12470    1.000
    C55      C        0.89370    0.20640    0.74450    1.000
    C56      C        0.23960    0.37800    0.53180    1.000
    C57      C        0.94110    0.41100    0.55470    1.000
    C58      C        0.34190    0.13420    0.79510    1.000
    C59      C        0.57440    0.70540    0.34490    1.000
    C60      C        0.32350    0.03860    0.65520    1.000
    C61      C        0.42560    0.29460    0.65510    1.000
    C62      C        0.14610    0.80220    0.12190    1.000
    C63      C        0.76070    0.62220    0.96700    1.000
    C64      C        0.57350    0.55140    0.89690    1.000
    C65      C        0.29170    0.10160    0.34980    1.000
    C66      C        0.94490    0.36060    0.86180    1.000
    C67      C        0.19670    0.49960    0.15270    1.000
    C68      C        0.73930    0.50040    0.63330    1.000
    C69      C        0.70670    0.49980    0.84510    1.000
    C70      C        0.80990    0.10160    0.84980    1.000
    C71      C        0.31270    0.20640    0.24450    1.000
    C72      C        0.41570    0.36060    0.36180    1.000
    C73      C        0.20690    0.50020    0.65490    1.000
    C74      C        0.58430    0.63940    0.63820    1.000
    C75      C        0.34390    0.19780    0.37810    1.000
    C76      C        0.31890    0.44180    0.09770    1.000
    C77      C        0.39060    0.63540    0.00210    1.000
    C78      C        0.61030    0.79180    0.31350    1.000
    C79      C        0.37670    0.21460    0.76740    1.000
    C80      C        0.67650    0.96140    0.34480    1.000
    C81      C        0.46990    0.41100    0.05470    1.000
    C82      C        0.18150    0.79180    0.81350    1.000
    C83      C        0.23930    0.37780    0.03300    1.000
    C84      C        0.16580    0.50760    0.37530    1.000
    C85      C        0.16210    0.78540    0.73260    1.000
    C86      C        0.53010    0.58900    0.94530    1.000
    C87      C        0.89670    0.25380    0.83020    1.000
    C88      C        0.29330    0.50020    0.15490    1.000
    C89      C        0.71510    0.03860    0.15520    1.000
    C90      C        0.75990    0.11960    0.12810    1.000
    C91      C        0.19010    0.89840    0.15020    1.000
    C92      C        0.74310    0.89160    0.78760    1.000
    C93      C        0.28490    0.96140    0.84480    1.000
    C94      C        0.64290    0.74620    0.66980    1.000
    C95      C        0.10330    0.74620    0.16980    1.000
    C96      C        0.13850    0.37780    0.53300    1.000
    C97      C        0.97790    0.55140    0.39690    1.000
    C98      C        0.15700    0.57620    0.43820    1.000
    C99      C        0.83790    0.21460    0.26740    1.000
    C100     C        0.86900    0.29460    0.15510    1.000
    C101     C        0.23890    0.49960    0.86670    1.000
    C102     C        0.66380    0.37700    0.50820    1.000
    C103     C        0.24930    0.05340    0.26650    1.000
    C104     C        0.38970    0.20820    0.68650    1.000
    N1       N        0.34530    0.55760    0.42880    1.000
    N2       N        0.88320    0.56280    0.90910    1.000
    N3       N        0.32040    0.43720    0.59090    1.000
    N4       N        0.21230    0.55760    0.92880    1.000
    N5       N        0.78770    0.44240    0.07120    1.000
    N6       N        0.11680    0.43720    0.09090    1.000
    N7       N        0.65470    0.44240    0.57120    1.000
    N8       N        0.67960    0.56280    0.40910    1.000
    O1       O        0.54050    0.62260    0.28670    1.000
    O2       O        0.04866    0.59772    0.06030    1.000
    O3       O        0.54906    0.59772    0.56030    1.000
    O4       O        0.42400    0.28380    0.57910    1.000
    O5       O        0.42554    0.40628    0.30930    1.000
    O6       O        0.14020    0.71620    0.92090    1.000
    O7       O        0.08210    0.62260    0.78670    1.000
    O8       O        0.91790    0.37740    0.21330    1.000
    O9       O        0.85980    0.28380    0.07910    1.000
    O10      O        0.45950    0.37740    0.71330    1.000
    O11      O        0.57600    0.71620    0.42090    1.000
    O12      O        0.57446    0.59372    0.69070    1.000
    O13      O        0.01926    0.59372    0.19070    1.000
    O14      O        0.45094    0.40228    0.43970    1.000
    O15      O        0.98074    0.40628    0.80930    1.000
    O16      O        0.95134    0.40228    0.93970    1.000
