# CIF file generated by openbabel 3.1.0, see https://openbabel.org
data_I
_chemical_name_common 'image0'
_cell_length_a 15.168
_cell_length_b 18.972
_cell_length_c 6.628
_cell_angle_alpha 90
_cell_angle_beta 90
_cell_angle_gamma 90
_space_group_name_H-M_alt 'P 1'
_space_group_name_Hall 'P 1'
loop_
    _symmetry_equiv_pos_as_xyz
    x,y,z
loop_
    _atom_site_label
    _atom_site_type_symbol
    _atom_site_fract_x
    _atom_site_fract_y
    _atom_site_fract_z
    _atom_site_occupancy
    P1       P        0.12050    0.05980    0.07550    1.000
    O1       O        0.90170    0.11160    0.68690    1.000
    O2       O        0.99350    0.32380    0.18700    1.000
    O3       O        0.73620    0.27590    0.18910    1.000
    O4       O        0.12320    0.06430    0.30770    1.000
    P2       P        0.87950    0.94020    0.07550    1.000
    O5       O        0.09830    0.88840    0.68690    1.000
    O6       O        0.00650    0.67620    0.18700    1.000
    O7       O        0.26380    0.72410    0.18910    1.000
    O8       O        0.87680    0.93570    0.30770    1.000
    P3       P        0.37950    0.55980    0.42450    1.000
    O9       O        0.59830    0.61160    0.81310    1.000
    O10      O        0.50650    0.82380    0.31300    1.000
    O11      O        0.76380    0.77590    0.31090    1.000
    O12      O        0.37680    0.56430    0.19230    1.000
    P4       P        0.62050    0.44020    0.42450    1.000
    O13      O        0.40170    0.38840    0.81310    1.000
    O14      O        0.49350    0.17620    0.31300    1.000
    O15      O        0.23620    0.22410    0.31090    1.000
    O16      O        0.62320    0.43570    0.19230    1.000
    P5       P        0.87950    0.94020    0.92450    1.000
    O17      O        0.09830    0.88840    0.31310    1.000
    O18      O        0.00650    0.67620    0.81300    1.000
    O19      O        0.26380    0.72410    0.81090    1.000
    O20      O        0.87680    0.93570    0.69230    1.000
    P6       P        0.12050    0.05980    0.92450    1.000
    O21      O        0.90170    0.11160    0.31310    1.000
    O22      O        0.99350    0.32380    0.81300    1.000
    O23      O        0.73620    0.27590    0.81090    1.000
    O24      O        0.12320    0.06430    0.69230    1.000
    P7       P        0.62050    0.44020    0.57550    1.000
    O25      O        0.40170    0.38840    0.18690    1.000
    O26      O        0.49350    0.17620    0.68700    1.000
    O27      O        0.23620    0.22410    0.68910    1.000
    O28      O        0.62320    0.43570    0.80770    1.000
    P8       P        0.37950    0.55980    0.57550    1.000
    O29      O        0.59830    0.61160    0.18690    1.000
    O30      O        0.50650    0.82380    0.68700    1.000
    O31      O        0.76380    0.77590    0.68910    1.000
    O32      O        0.37680    0.56430    0.80770    1.000
    Zr1      Zr       0.90134    0.11654    0.00000    1.000
    P9       P        0.01250    0.28008    0.00000    1.000
    P10      P        0.72060    0.23070    0.00000    1.000
    O33      O        0.95510    0.21490    0.00000    1.000
    O34      O        0.78130    0.16670    0.00000    1.000
    O35      O        0.02940    0.07730    0.00000    1.000
    O36      O        0.85390    0.01430    0.00000    1.000
    Zr2      Zr       0.09866    0.88346    0.00000    1.000
    P11      P        0.98750    0.71992    0.00000    1.000
    P12      P        0.27940    0.76930    0.00000    1.000
    O37      O        0.04490    0.78510    0.00000    1.000
    O38      O        0.21870    0.83330    0.00000    1.000
    O39      O        0.97060    0.92270    0.00000    1.000
    O40      O        0.14610    0.98570    0.00000    1.000
    Zr3      Zr       0.59866    0.61654    0.50000    1.000
    P13      P        0.48750    0.78008    0.50000    1.000
    P14      P        0.77940    0.73070    0.50000    1.000
    O41      O        0.54490    0.71490    0.50000    1.000
    O42      O        0.71870    0.66670    0.50000    1.000
    O43      O        0.47060    0.57730    0.50000    1.000
    O44      O        0.64610    0.51430    0.50000    1.000
    Zr4      Zr       0.40134    0.38346    0.50000    1.000
    P15      P        0.51250    0.21992    0.50000    1.000
    P16      P        0.22060    0.26930    0.50000    1.000
    O45      O        0.45510    0.28510    0.50000    1.000
    O46      O        0.28130    0.33330    0.50000    1.000
    O47      O        0.52940    0.42270    0.50000    1.000
    O48      O        0.35390    0.48570    0.50000    1.000
    Zr5      Zr       0.73125    0.28347    0.50000    1.000
    Zr6      Zr       0.99660    0.31894    0.50000    1.000
    P17      P        0.89110    0.15733    0.50000    1.000
    F1       F        0.85680    0.33200    0.50000    1.000
    F2       F        0.99980    0.42290    0.50000    1.000
    O49      O        0.79980    0.19040    0.50000    1.000
    O50      O        0.95980    0.21500    0.50000    1.000
    O51      O        0.60990    0.24210    0.50000    1.000
    O52      O        0.12560    0.29670    0.50000    1.000
    O53      O        0.68860    0.38690    0.50000    1.000
    Zr7      Zr       0.26875    0.71653    0.50000    1.000
    Zr8      Zr       0.00340    0.68106    0.50000    1.000
    P18      P        0.10890    0.84267    0.50000    1.000
    F3       F        0.14320    0.66800    0.50000    1.000
    F4       F        0.00020    0.57710    0.50000    1.000
    O54      O        0.20020    0.80960    0.50000    1.000
    O55      O        0.04020    0.78500    0.50000    1.000
    O56      O        0.39010    0.75790    0.50000    1.000
    O57      O        0.87440    0.70330    0.50000    1.000
    O58      O        0.31140    0.61310    0.50000    1.000
    Zr9      Zr       0.76875    0.78347    0.00000    1.000
    Zr10     Zr       0.50340    0.81894    0.00000    1.000
    P19      P        0.60890    0.65733    0.00000    1.000
    F5       F        0.64320    0.83200    0.00000    1.000
    F6       F        0.50020    0.92290    0.00000    1.000
    O59      O        0.70020    0.69040    0.00000    1.000
    O60      O        0.54020    0.71500    0.00000    1.000
    O61      O        0.89010    0.74210    0.00000    1.000
    O62      O        0.37440    0.79670    0.00000    1.000
    O63      O        0.81140    0.88690    0.00000    1.000
    Zr11     Zr       0.23125    0.21653    0.00000    1.000
    Zr12     Zr       0.49660    0.18106    0.00000    1.000
    P20      P        0.39110    0.34267    0.00000    1.000
    F7       F        0.35680    0.16800    0.00000    1.000
    F8       F        0.49980    0.07710    0.00000    1.000
    O64      O        0.29980    0.30960    0.00000    1.000
    O65      O        0.45980    0.28500    0.00000    1.000
    O66      O        0.10990    0.25790    0.00000    1.000
    O67      O        0.62560    0.20330    0.00000    1.000
    O68      O        0.18860    0.11310    0.00000    1.000
