# CIF file generated by openbabel 3.1.0, see https://openbabel.org
data_I
_chemical_name_common 'image0'
_cell_length_a 15.0103
_cell_length_b 15.0103
_cell_length_c 10.0791
_cell_angle_alpha 90
_cell_angle_beta 90
_cell_angle_gamma 90
_space_group_name_H-M_alt 'P 1'
_space_group_name_Hall 'P 1'
loop_
    _symmetry_equiv_pos_as_xyz
    x,y,z
loop_
    _atom_site_label
    _atom_site_type_symbol
    _atom_site_fract_x
    _atom_site_fract_y
    _atom_site_fract_z
    _atom_site_occupancy
    O1       O        0.30482    0.94881    0.24955    1.000
    O2       O        0.42433    0.90639    0.14536    1.000
    C1       C        0.78970    0.78940    0.40430    1.000
    H1       H        0.83140    0.80360    0.33250    1.000
    C2       C        0.70540    0.82620    0.39810    1.000
    C3       C        0.51152    0.86959    0.38179    1.000
    H2       H        0.53990    0.85790    0.30160    1.000
    C4       C        0.42673    0.90424    0.38112    1.000
    C5       C        0.38140    0.92225    0.24993    1.000
    C6       C        0.25313    0.19865    0.96710    1.000
    H3       H        0.21690    0.23630    0.90870    1.000
    C7       C        0.38930    0.44970    0.94820    1.000
    H4       H        0.36080    0.49580    0.89400    1.000
    C8       C        0.47610    0.29818    0.04650    1.000
    H5       H        0.50480    0.25240    0.10130    1.000
    C9       C        0.67070    0.75250    0.40070    1.000
    C10      C        0.75550    0.71730    0.40360    1.000
    O3       O        0.69518    0.05119    0.24955    1.000
    O4       O        0.57567    0.09361    0.14536    1.000
    C11      C        0.21030    0.21060    0.40430    1.000
    H6       H        0.16860    0.19640    0.33250    1.000
    C12      C        0.29460    0.17380    0.39810    1.000
    C13      C        0.48848    0.13041    0.38179    1.000
    H7       H        0.46010    0.14210    0.30160    1.000
    C14      C        0.57327    0.09576    0.38112    1.000
    C15      C        0.61860    0.07775    0.24993    1.000
    C16      C        0.74687    0.80135    0.96710    1.000
    H8       H        0.78310    0.76370    0.90870    1.000
    C17      C        0.61070    0.55030    0.94820    1.000
    H9       H        0.63920    0.50420    0.89400    1.000
    C18      C        0.52390    0.70182    0.04650    1.000
    H10      H        0.49520    0.74760    0.10130    1.000
    C19      C        0.32930    0.24750    0.40070    1.000
    C20      C        0.24450    0.28270    0.40360    1.000
    O5       O        0.05119    0.30482    0.74955    1.000
    O6       O        0.09361    0.42433    0.64536    1.000
    C21      C        0.21060    0.78970    0.90430    1.000
    H11      H        0.19640    0.83140    0.83250    1.000
    C22      C        0.17380    0.70540    0.89810    1.000
    C23      C        0.13041    0.51152    0.88179    1.000
    H12      H        0.14210    0.53990    0.80160    1.000
    C24      C        0.09576    0.42673    0.88112    1.000
    C25      C        0.07775    0.38140    0.74993    1.000
    C26      C        0.80135    0.25313    0.46710    1.000
    H13      H        0.76370    0.21690    0.40870    1.000
    C27      C        0.55030    0.38930    0.44820    1.000
    H14      H        0.50420    0.36080    0.39400    1.000
    C28      C        0.70182    0.47610    0.54650    1.000
    H15      H        0.74760    0.50480    0.60130    1.000
    C29      C        0.24750    0.67070    0.90070    1.000
    C30      C        0.28270    0.75550    0.90360    1.000
    O7       O        0.94881    0.69518    0.74955    1.000
    O8       O        0.90639    0.57567    0.64536    1.000
    C31      C        0.78940    0.21030    0.90430    1.000
    H16      H        0.80360    0.16860    0.83250    1.000
    C32      C        0.82620    0.29460    0.89810    1.000
    C33      C        0.86959    0.48848    0.88179    1.000
    H17      H        0.85790    0.46010    0.80160    1.000
    C34      C        0.90424    0.57327    0.88112    1.000
    C35      C        0.92225    0.61860    0.74993    1.000
    C36      C        0.19865    0.74687    0.46710    1.000
    H18      H        0.23630    0.78310    0.40870    1.000
    C37      C        0.44970    0.61070    0.44820    1.000
    H19      H        0.49580    0.63920    0.39400    1.000
    C38      C        0.29818    0.52390    0.54650    1.000
    H20      H        0.25240    0.49520    0.60130    1.000
    C39      C        0.75250    0.32930    0.90070    1.000
    C40      C        0.71730    0.24450    0.90360    1.000
    O9       O        0.69518    0.05119    0.75045    1.000
    O10      O        0.57567    0.09361    0.85464    1.000
    C41      C        0.21030    0.21060    0.59570    1.000
    H21      H        0.16860    0.19640    0.66750    1.000
    C42      C        0.29460    0.17380    0.60190    1.000
    C43      C        0.48848    0.13041    0.61821    1.000
    H22      H        0.46010    0.14210    0.69840    1.000
    C44      C        0.57327    0.09576    0.61888    1.000
    C45      C        0.61860    0.07775    0.75007    1.000
    C46      C        0.74687    0.80135    0.03290    1.000
    H23      H        0.78310    0.76370    0.09130    1.000
    C47      C        0.61070    0.55030    0.05180    1.000
    H24      H        0.63920    0.50420    0.10600    1.000
    C48      C        0.52390    0.70182    0.95350    1.000
    H25      H        0.49520    0.74760    0.89870    1.000
    C49      C        0.32930    0.24750    0.59930    1.000
    C50      C        0.24450    0.28270    0.59640    1.000
    O11      O        0.30482    0.94881    0.75045    1.000
    O12      O        0.42433    0.90639    0.85464    1.000
    C51      C        0.78970    0.78940    0.59570    1.000
    H26      H        0.83140    0.80360    0.66750    1.000
    C52      C        0.70540    0.82620    0.60190    1.000
    C53      C        0.51152    0.86959    0.61821    1.000
    H27      H        0.53990    0.85790    0.69840    1.000
    C54      C        0.42673    0.90424    0.61888    1.000
    C55      C        0.38140    0.92225    0.75007    1.000
    C56      C        0.25313    0.19865    0.03290    1.000
    H28      H        0.21690    0.23630    0.09130    1.000
    C57      C        0.38930    0.44970    0.05180    1.000
    H29      H        0.36080    0.49580    0.10600    1.000
    C58      C        0.47610    0.29818    0.95350    1.000
    H30      H        0.50480    0.25240    0.89870    1.000
    C59      C        0.67070    0.75250    0.59930    1.000
    C60      C        0.75550    0.71730    0.59640    1.000
    O13      O        0.94881    0.69518    0.25045    1.000
    O14      O        0.90639    0.57567    0.35464    1.000
    C61      C        0.78940    0.21030    0.09570    1.000
    H31      H        0.80360    0.16860    0.16750    1.000
    C62      C        0.82620    0.29460    0.10190    1.000
    C63      C        0.86959    0.48848    0.11821    1.000
    H32      H        0.85790    0.46010    0.19840    1.000
    C64      C        0.90424    0.57327    0.11888    1.000
    C65      C        0.92225    0.61860    0.25007    1.000
    C66      C        0.19865    0.74687    0.53290    1.000
    H33      H        0.23630    0.78310    0.59130    1.000
    C67      C        0.44970    0.61070    0.55180    1.000
    H34      H        0.49580    0.63920    0.60600    1.000
    C68      C        0.29818    0.52390    0.45350    1.000
    H35      H        0.25240    0.49520    0.39870    1.000
    C69      C        0.75250    0.32930    0.09930    1.000
    C70      C        0.71730    0.24450    0.09640    1.000
    O15      O        0.05119    0.30482    0.25045    1.000
    O16      O        0.09361    0.42433    0.35464    1.000
    C71      C        0.21060    0.78970    0.09570    1.000
    H36      H        0.19640    0.83140    0.16750    1.000
    C72      C        0.17380    0.70540    0.10190    1.000
    C73      C        0.13041    0.51152    0.11821    1.000
    H37      H        0.14210    0.53990    0.19840    1.000
    C74      C        0.09576    0.42673    0.11888    1.000
    C75      C        0.07775    0.38140    0.25007    1.000
    C76      C        0.80135    0.25313    0.53290    1.000
    H38      H        0.76370    0.21690    0.59130    1.000
    C77      C        0.55030    0.38930    0.55180    1.000
    H39      H        0.50420    0.36080    0.60600    1.000
    C78      C        0.70182    0.47610    0.45350    1.000
    H40      H        0.74760    0.50480    0.39870    1.000
    C79      C        0.24750    0.67070    0.09930    1.000
    C80      C        0.28270    0.75550    0.09640    1.000
    Co1      Co       0.33643    0.93342    0.00000    1.000
    N1       N        0.31602    0.06735    0.00000    1.000
    N2       N        0.34195    0.21091    0.00000    1.000
    C81      C        0.23752    0.11230    0.00000    1.000
    H41      H        0.17860    0.08410    0.00000    1.000
    C82      C        0.37640    0.12899    0.00000    1.000
    H42      H        0.43730    0.11740    0.00000    1.000
    C83      C        0.38829    0.29312    0.00000    1.000
    C84      C        0.34200    0.36970    0.00000    1.000
    H43      H        0.27670    0.36810    0.00000    1.000
    C85      C        0.47600    0.45662    0.00000    1.000
    C86      C        0.52010    0.37798    0.00000    1.000
    H44      H        0.58540    0.37920    0.00000    1.000
    Co2      Co       0.66357    0.06658    0.00000    1.000
    N3       N        0.68398    0.93265    0.00000    1.000
    N4       N        0.65805    0.78909    0.00000    1.000
    C87      C        0.76248    0.88770    0.00000    1.000
    H45      H        0.82140    0.91590    0.00000    1.000
    C88      C        0.62360    0.87101    0.00000    1.000
    H46      H        0.56270    0.88260    0.00000    1.000
    C89      C        0.61171    0.70688    0.00000    1.000
    C90      C        0.65800    0.63030    0.00000    1.000
    H47      H        0.72330    0.63190    0.00000    1.000
    C91      C        0.52400    0.54338    0.00000    1.000
    C92      C        0.47990    0.62202    0.00000    1.000
    H48      H        0.41460    0.62080    0.00000    1.000
    Co3      Co       0.06658    0.33643    0.50000    1.000
    N5       N        0.93265    0.31602    0.50000    1.000
    N6       N        0.78909    0.34195    0.50000    1.000
    C93      C        0.88770    0.23752    0.50000    1.000
    H49      H        0.91590    0.17860    0.50000    1.000
    C94      C        0.87101    0.37640    0.50000    1.000
    H50      H        0.88260    0.43730    0.50000    1.000
    C95      C        0.70688    0.38829    0.50000    1.000
    C96      C        0.63030    0.34200    0.50000    1.000
    H51      H        0.63190    0.27670    0.50000    1.000
    C97      C        0.54338    0.47600    0.50000    1.000
    C98      C        0.62202    0.52010    0.50000    1.000
    H52      H        0.62080    0.58540    0.50000    1.000
    Co4      Co       0.93342    0.66357    0.50000    1.000
    N7       N        0.06735    0.68398    0.50000    1.000
    N8       N        0.21091    0.65805    0.50000    1.000
    C99      C        0.11230    0.76248    0.50000    1.000
    H53      H        0.08410    0.82140    0.50000    1.000
    C100     C        0.12899    0.62360    0.50000    1.000
    H54      H        0.11740    0.56270    0.50000    1.000
    C101     C        0.29312    0.61171    0.50000    1.000
    C102     C        0.36970    0.65800    0.50000    1.000
    H55      H        0.36810    0.72330    0.50000    1.000
    C103     C        0.45662    0.52400    0.50000    1.000
    C104     C        0.37798    0.47990    0.50000    1.000
    H56      H        0.37920    0.41460    0.50000    1.000
    N9       N        0.81795    0.73675    0.50000    1.000
    C105     C        0.64555    0.81369    0.50000    1.000
    C106     C        0.55571    0.85169    0.50000    1.000
    C107     C        0.38296    0.92228    0.50000    1.000
    H57      H        0.32570    0.94590    0.50000    1.000
    N10      N        0.18205    0.26325    0.50000    1.000
    C108     C        0.35445    0.18631    0.50000    1.000
    C109     C        0.44429    0.14831    0.50000    1.000
    C110     C        0.61704    0.07772    0.50000    1.000
    H58      H        0.67430    0.05410    0.50000    1.000
    N11      N        0.26325    0.81795    0.00000    1.000
    C111     C        0.18631    0.64555    0.00000    1.000
    C112     C        0.14831    0.55571    0.00000    1.000
    C113     C        0.07772    0.38296    0.00000    1.000
    H59      H        0.05410    0.32570    0.00000    1.000
    N12      N        0.73675    0.18205    0.00000    1.000
    C114     C        0.81369    0.35445    0.00000    1.000
    C115     C        0.85169    0.44429    0.00000    1.000
    C116     C        0.92228    0.61704    0.00000    1.000
    H60      H        0.94590    0.67430    0.00000    1.000
