# CIF file generated by openbabel 3.1.0, see https://openbabel.org
data_I
_chemical_name_common 'image0'
_cell_length_a 18.688
_cell_length_b 15.052
_cell_length_c 16.259
_cell_angle_alpha 90
_cell_angle_beta 113.104
_cell_angle_gamma 90
_space_group_name_H-M_alt 'P 1'
_space_group_name_Hall 'P 1'
loop_
    _symmetry_equiv_pos_as_xyz
    x,y,z
loop_
    _atom_site_label
    _atom_site_type_symbol
    _atom_site_fract_x
    _atom_site_fract_y
    _atom_site_fract_z
    _atom_site_occupancy
    Mn1      Mn       0.22045    0.60925    0.95114    1.000
    O1       O        0.24410    0.63370    0.08680    1.000
    O2       O        0.21100    0.47480    0.33450    1.000
    O3       O        0.23270    0.54370    0.46120    1.000
    O4       O        0.30230    0.76580    0.11160    1.000
    C1       C        0.24760    0.62740    0.25860    1.000
    H1       H        0.22980    0.57810    0.22180    1.000
    C2       C        0.29910    0.77410    0.28150    1.000
    H2       H        0.31730    0.82270    0.26020    1.000
    C3       C        0.24930    0.62710    0.34550    1.000
    C4       C        0.22900    0.54430    0.38190    1.000
    C5       C        0.27210    0.70070    0.13480    1.000
    C6       C        0.27260    0.70130    0.22860    1.000
    C7       C        0.27490    0.70170    0.39890    1.000
    C8       C        0.43780    0.91810    0.40740    1.000
    N1       N        0.59350    0.90210    0.43030    1.000
    N2       N        0.32480    0.84940    0.42440    1.000
    H3       H        0.32320    0.84800    0.47650    1.000
    C9       C        0.35490    0.92880    0.39600    1.000
    H4       H        0.35070    0.97940    0.43080    1.000
    H5       H        0.32310    0.94080    0.33360    1.000
    C10      C        0.29910    0.77690    0.36790    1.000
    C11      C        0.54620    0.95820    0.37440    1.000
    H6       H        0.56580    0.99430    0.34160    1.000
    C12      C        0.48930    0.86200    0.46980    1.000
    H7       H        0.47230    0.82730    0.50590    1.000
    C13      C        0.46860    0.96780    0.36060    1.000
    H8       H        0.43770    0.00860    0.31880    1.000
    C14      C        0.56440    0.85700    0.47910    1.000
    H9       H        0.59750    0.81930    0.52280    1.000
    Mn2      Mn       0.72045    0.10925    0.95114    1.000
    O5       O        0.74410    0.13370    0.08680    1.000
    O6       O        0.71100    0.97480    0.33450    1.000
    O7       O        0.73270    0.04370    0.46120    1.000
    O8       O        0.80230    0.26580    0.11160    1.000
    C15      C        0.74760    0.12740    0.25860    1.000
    H10      H        0.72980    0.07810    0.22180    1.000
    C16      C        0.79910    0.27410    0.28150    1.000
    H11      H        0.81730    0.32270    0.26020    1.000
    C17      C        0.74930    0.12710    0.34550    1.000
    C18      C        0.72900    0.04430    0.38190    1.000
    C19      C        0.77210    0.20070    0.13480    1.000
    C20      C        0.77260    0.20130    0.22860    1.000
    C21      C        0.77490    0.20170    0.39890    1.000
    C22      C        0.93780    0.41810    0.40740    1.000
    N3       N        0.09350    0.40210    0.43030    1.000
    N4       N        0.82480    0.34940    0.42440    1.000
    H12      H        0.82320    0.34800    0.47650    1.000
    C23      C        0.85490    0.42880    0.39600    1.000
    H13      H        0.85070    0.47940    0.43080    1.000
    H14      H        0.82310    0.44080    0.33360    1.000
    C24      C        0.79910    0.27690    0.36790    1.000
    C25      C        0.04620    0.45820    0.37440    1.000
    H15      H        0.06580    0.49430    0.34160    1.000
    C26      C        0.98930    0.36200    0.46980    1.000
    H16      H        0.97230    0.32730    0.50590    1.000
    C27      C        0.96860    0.46780    0.36060    1.000
    H17      H        0.93770    0.50860    0.31880    1.000
    C28      C        0.06440    0.35700    0.47910    1.000
    H18      H        0.09750    0.31930    0.52280    1.000
    Mn3      Mn       0.77955    0.60925    0.54886    1.000
    O9       O        0.75590    0.63370    0.41320    1.000
    O10      O        0.78900    0.47480    0.16550    1.000
    O11      O        0.76730    0.54370    0.03880    1.000
    O12      O        0.69770    0.76580    0.38840    1.000
    C29      C        0.75240    0.62740    0.24140    1.000
    H19      H        0.77020    0.57810    0.27820    1.000
    C30      C        0.70090    0.77410    0.21850    1.000
    H20      H        0.68270    0.82270    0.23980    1.000
    C31      C        0.75070    0.62710    0.15450    1.000
    C32      C        0.77100    0.54430    0.11810    1.000
    C33      C        0.72790    0.70070    0.36520    1.000
    C34      C        0.72740    0.70130    0.27140    1.000
    C35      C        0.72510    0.70170    0.10110    1.000
    C36      C        0.56220    0.91810    0.09260    1.000
    N5       N        0.40650    0.90210    0.06970    1.000
    N6       N        0.67520    0.84940    0.07560    1.000
    H21      H        0.67680    0.84800    0.02350    1.000
    C37      C        0.64510    0.92880    0.10400    1.000
    H22      H        0.64930    0.97940    0.06920    1.000
    H23      H        0.67690    0.94080    0.16640    1.000
    C38      C        0.70090    0.77690    0.13210    1.000
    C39      C        0.45380    0.95820    0.12560    1.000
    H24      H        0.43420    0.99430    0.15840    1.000
    C40      C        0.51070    0.86200    0.03020    1.000
    H25      H        0.52770    0.82730    0.99410    1.000
    C41      C        0.53140    0.96780    0.13940    1.000
    H26      H        0.56230    0.00860    0.18120    1.000
    C42      C        0.43560    0.85700    0.02090    1.000
    H27      H        0.40250    0.81930    0.97720    1.000
    Mn4      Mn       0.27955    0.10925    0.54886    1.000
    O13      O        0.25590    0.13370    0.41320    1.000
    O14      O        0.28900    0.97480    0.16550    1.000
    O15      O        0.26730    0.04370    0.03880    1.000
    O16      O        0.19770    0.26580    0.38840    1.000
    C43      C        0.25240    0.12740    0.24140    1.000
    H28      H        0.27020    0.07810    0.27820    1.000
    C44      C        0.20090    0.27410    0.21850    1.000
    H29      H        0.18270    0.32270    0.23980    1.000
    C45      C        0.25070    0.12710    0.15450    1.000
    C46      C        0.27100    0.04430    0.11810    1.000
    C47      C        0.22790    0.20070    0.36520    1.000
    C48      C        0.22740    0.20130    0.27140    1.000
    C49      C        0.22510    0.20170    0.10110    1.000
    C50      C        0.06220    0.41810    0.09260    1.000
    N7       N        0.90650    0.40210    0.06970    1.000
    N8       N        0.17520    0.34940    0.07560    1.000
    H30      H        0.17680    0.34800    0.02350    1.000
    C51      C        0.14510    0.42880    0.10400    1.000
    H31      H        0.14930    0.47940    0.06920    1.000
    H32      H        0.17690    0.44080    0.16640    1.000
    C52      C        0.20090    0.27690    0.13210    1.000
    C53      C        0.95380    0.45820    0.12560    1.000
    H33      H        0.93420    0.49430    0.15840    1.000
    C54      C        0.01070    0.36200    0.03020    1.000
    H34      H        0.02770    0.32730    0.99410    1.000
    C55      C        0.03140    0.46780    0.13940    1.000
    H35      H        0.06230    0.50860    0.18120    1.000
    C56      C        0.93560    0.35700    0.02090    1.000
    H36      H        0.90250    0.31930    0.97720    1.000
    Mn5      Mn       0.77955    0.39075    0.04886    1.000
    O17      O        0.75590    0.36630    0.91320    1.000
    O18      O        0.78900    0.52520    0.66550    1.000
    O19      O        0.76730    0.45630    0.53880    1.000
    O20      O        0.69770    0.23420    0.88840    1.000
    C57      C        0.75240    0.37260    0.74140    1.000
    H37      H        0.77020    0.42190    0.77820    1.000
    C58      C        0.70090    0.22590    0.71850    1.000
    H38      H        0.68270    0.17730    0.73980    1.000
    C59      C        0.75070    0.37290    0.65450    1.000
    C60      C        0.77100    0.45570    0.61810    1.000
    C61      C        0.72790    0.29930    0.86520    1.000
    C62      C        0.72740    0.29870    0.77140    1.000
    C63      C        0.72510    0.29830    0.60110    1.000
    C64      C        0.56220    0.08190    0.59260    1.000
    N9       N        0.40650    0.09790    0.56970    1.000
    N10      N        0.67520    0.15060    0.57560    1.000
    H39      H        0.67680    0.15200    0.52350    1.000
    C65      C        0.64510    0.07120    0.60400    1.000
    H40      H        0.64930    0.02060    0.56920    1.000
    H41      H        0.67690    0.05920    0.66640    1.000
    C66      C        0.70090    0.22310    0.63210    1.000
    C67      C        0.45380    0.04180    0.62560    1.000
    H42      H        0.43420    0.00570    0.65840    1.000
    C68      C        0.51070    0.13800    0.53020    1.000
    H43      H        0.52770    0.17270    0.49410    1.000
    C69      C        0.53140    0.03220    0.63940    1.000
    H44      H        0.56230    0.99140    0.68120    1.000
    C70      C        0.43560    0.14300    0.52090    1.000
    H45      H        0.40250    0.18070    0.47720    1.000
    Mn6      Mn       0.27955    0.89075    0.04886    1.000
    O21      O        0.25590    0.86630    0.91320    1.000
    O22      O        0.28900    0.02520    0.66550    1.000
    O23      O        0.26730    0.95630    0.53880    1.000
    O24      O        0.19770    0.73420    0.88840    1.000
    C71      C        0.25240    0.87260    0.74140    1.000
    H46      H        0.27020    0.92190    0.77820    1.000
    C72      C        0.20090    0.72590    0.71850    1.000
    H47      H        0.18270    0.67730    0.73980    1.000
    C73      C        0.25070    0.87290    0.65450    1.000
    C74      C        0.27100    0.95570    0.61810    1.000
    C75      C        0.22790    0.79930    0.86520    1.000
    C76      C        0.22740    0.79870    0.77140    1.000
    C77      C        0.22510    0.79830    0.60110    1.000
    C78      C        0.06220    0.58190    0.59260    1.000
    N11      N        0.90650    0.59790    0.56970    1.000
    N12      N        0.17520    0.65060    0.57560    1.000
    H48      H        0.17680    0.65200    0.52350    1.000
    C79      C        0.14510    0.57120    0.60400    1.000
    H49      H        0.14930    0.52060    0.56920    1.000
    H50      H        0.17690    0.55920    0.66640    1.000
    C80      C        0.20090    0.72310    0.63210    1.000
    C81      C        0.95380    0.54180    0.62560    1.000
    H51      H        0.93420    0.50570    0.65840    1.000
    C82      C        0.01070    0.63800    0.53020    1.000
    H52      H        0.02770    0.67270    0.49410    1.000
    C83      C        0.03140    0.53220    0.63940    1.000
    H53      H        0.06230    0.49140    0.68120    1.000
    C84      C        0.93560    0.64300    0.52090    1.000
    H54      H        0.90250    0.68070    0.47720    1.000
    Mn7      Mn       0.22045    0.39075    0.45114    1.000
    O25      O        0.24410    0.36630    0.58680    1.000
    O26      O        0.21100    0.52520    0.83450    1.000
    O27      O        0.23270    0.45630    0.96120    1.000
    O28      O        0.30230    0.23420    0.61160    1.000
    C85      C        0.24760    0.37260    0.75860    1.000
    H55      H        0.22980    0.42190    0.72180    1.000
    C86      C        0.29910    0.22590    0.78150    1.000
    H56      H        0.31730    0.17730    0.76020    1.000
    C87      C        0.24930    0.37290    0.84550    1.000
    C88      C        0.22900    0.45570    0.88190    1.000
    C89      C        0.27210    0.29930    0.63480    1.000
    C90      C        0.27260    0.29870    0.72860    1.000
    C91      C        0.27490    0.29830    0.89890    1.000
    C92      C        0.43780    0.08190    0.90740    1.000
    N13      N        0.59350    0.09790    0.93030    1.000
    N14      N        0.32480    0.15060    0.92440    1.000
    H57      H        0.32320    0.15200    0.97650    1.000
    C93      C        0.35490    0.07120    0.89600    1.000
    H58      H        0.35070    0.02060    0.93080    1.000
    H59      H        0.32310    0.05920    0.83360    1.000
    C94      C        0.29910    0.22310    0.86790    1.000
    C95      C        0.54620    0.04180    0.87440    1.000
    H60      H        0.56580    0.00570    0.84160    1.000
    C96      C        0.48930    0.13800    0.96980    1.000
    H61      H        0.47230    0.17270    0.00590    1.000
    C97      C        0.46860    0.03220    0.86060    1.000
    H62      H        0.43770    0.99140    0.81880    1.000
    C98      C        0.56440    0.14300    0.97910    1.000
    H63      H        0.59750    0.18070    0.02280    1.000
    Mn8      Mn       0.72045    0.89075    0.45114    1.000
    O29      O        0.74410    0.86630    0.58680    1.000
    O30      O        0.71100    0.02520    0.83450    1.000
    O31      O        0.73270    0.95630    0.96120    1.000
    O32      O        0.80230    0.73420    0.61160    1.000
    C99      C        0.74760    0.87260    0.75860    1.000
    H64      H        0.72980    0.92190    0.72180    1.000
    C100     C        0.79910    0.72590    0.78150    1.000
    H65      H        0.81730    0.67730    0.76020    1.000
    C101     C        0.74930    0.87290    0.84550    1.000
    C102     C        0.72900    0.95570    0.88190    1.000
    C103     C        0.77210    0.79930    0.63480    1.000
    C104     C        0.77260    0.79870    0.72860    1.000
    C105     C        0.77490    0.79830    0.89890    1.000
    C106     C        0.93780    0.58190    0.90740    1.000
    N15      N        0.09350    0.59790    0.93030    1.000
    N16      N        0.82480    0.65060    0.92440    1.000
    H66      H        0.82320    0.65200    0.97650    1.000
    C107     C        0.85490    0.57120    0.89600    1.000
    H67      H        0.85070    0.52060    0.93080    1.000
    H68      H        0.82310    0.55920    0.83360    1.000
    C108     C        0.79910    0.72310    0.86790    1.000
    C109     C        0.04620    0.54180    0.87440    1.000
    H69      H        0.06580    0.50570    0.84160    1.000
    C110     C        0.98930    0.63800    0.96980    1.000
    H70      H        0.97230    0.67270    0.00590    1.000
    C111     C        0.96860    0.53220    0.86060    1.000
    H71      H        0.93770    0.49140    0.81880    1.000
    C112     C        0.06440    0.64300    0.97910    1.000
    H72      H        0.09750    0.68070    0.02280    1.000
