# CIF file generated by openbabel 3.1.0, see https://openbabel.org
data_I
_chemical_name_common 'image0'
_cell_length_a 26.528
_cell_length_b 26.528
_cell_length_c 4.498
_cell_angle_alpha 90
_cell_angle_beta 90
_cell_angle_gamma 90
_space_group_name_H-M_alt 'P 1'
_space_group_name_Hall 'P 1'
loop_
    _symmetry_equiv_pos_as_xyz
    x,y,z
loop_
    _atom_site_label
    _atom_site_type_symbol
    _atom_site_fract_x
    _atom_site_fract_y
    _atom_site_fract_z
    _atom_site_occupancy
    Zn1      Zn       0.26859    0.21543    0.94750    1.000
    O1       O        0.22600    0.27830    0.00000    1.000
    H1       H        0.20420    0.28990    0.88280    1.000
    N1       N        0.24020    0.14720    0.98000    1.000
    C1       C        0.25670    0.11160    0.15500    1.000
    H2       H        0.28240    0.11560    0.29440    1.000
    N2       N        0.23120    0.06810    0.10700    1.000
    C2       C        0.20060    0.12390    0.80600    1.000
    O2       O        0.26370    0.83700    0.49300    1.000
    C3       C        0.17120    0.14570    0.58700    1.000
    H3       H        0.17560    0.17930    0.53540    1.000
    O3       O        0.32790    0.86330    0.40900    1.000
    C4       C        0.13510    0.11680    0.44600    1.000
    C5       C        0.10480    0.13710    0.22700    1.000
    H4       H        0.10910    0.17080    0.17610    1.000
    C6       C        0.06840    0.10970    0.08000    1.000
    H5       H        0.04840    0.12390    0.93200    1.000
    C7       C        0.06310    0.05990    0.16400    1.000
    H6       H        0.03900    0.03980    0.07100    1.000
    C8       C        0.09310    0.03970    0.38300    1.000
    H7       H        0.08850    0.00600    0.43420    1.000
    C9       C        0.12980    0.06700    0.53000    1.000
    C10      C        0.15920    0.04530    0.74800    1.000
    H8       H        0.15670    0.01100    0.78930    1.000
    C11      C        0.19240    0.07530    0.90300    1.000
    C12      C        0.24510    0.01790    0.21500    1.000
    C13      C        0.27190    0.92680    0.43900    1.000
    C14      C        0.26210    0.01380    0.50400    1.000
    H9       H        0.26420    0.04260    0.62170    1.000
    C15      C        0.27590    0.96810    0.62200    1.000
    H10      H        0.28740    0.96510    0.81680    1.000
    C16      C        0.25530    0.92870    0.15100    1.000
    H11      H        0.25320    0.89980    0.03420    1.000
    C17      C        0.24190    0.97520    0.04200    1.000
    H12      H        0.23050    0.97800    0.84690    1.000
    C18      C        0.28660    0.87490    0.55200    1.000
    O4       O        0.27030    0.87200    0.81800    1.000
    C19      C        0.29360    0.01050    0.31100    1.000
    H13      H        0.31670    0.03680    0.29750    1.000
    C20      C        0.30890    0.96420    0.42700    1.000
    H14      H        0.34170    0.95860    0.49260    1.000
    C21      C        0.22180    0.93050    0.34800    1.000
    H15      H        0.19850    0.90430    0.35990    1.000
    C22      C        0.21090    0.97830    0.23600    1.000
    H16      H        0.17820    0.98420    0.16950    1.000
    Zn2      Zn       0.76859    0.71543    0.44750    1.000
    O5       O        0.72600    0.77830    0.50000    1.000
    H17      H        0.70420    0.78990    0.38280    1.000
    N3       N        0.74020    0.64720    0.48000    1.000
    C23      C        0.75670    0.61160    0.65500    1.000
    H18      H        0.78240    0.61560    0.79440    1.000
    N4       N        0.73120    0.56810    0.60700    1.000
    C24      C        0.70060    0.62390    0.30600    1.000
    O6       O        0.76370    0.33700    0.99300    1.000
    C25      C        0.67120    0.64570    0.08700    1.000
    H19      H        0.67560    0.67930    0.03540    1.000
    O7       O        0.82790    0.36330    0.90900    1.000
    C26      C        0.63510    0.61680    0.94600    1.000
    C27      C        0.60480    0.63710    0.72700    1.000
    H20      H        0.60910    0.67080    0.67610    1.000
    C28      C        0.56840    0.60970    0.58000    1.000
    H21      H        0.54840    0.62390    0.43200    1.000
    C29      C        0.56310    0.55990    0.66400    1.000
    H22      H        0.53900    0.53980    0.57100    1.000
    C30      C        0.59310    0.53970    0.88300    1.000
    H23      H        0.58850    0.50600    0.93420    1.000
    C31      C        0.62980    0.56700    0.03000    1.000
    C32      C        0.65920    0.54530    0.24800    1.000
    H24      H        0.65670    0.51100    0.28930    1.000
    C33      C        0.69240    0.57530    0.40300    1.000
    C34      C        0.74510    0.51790    0.71500    1.000
    C35      C        0.77190    0.42680    0.93900    1.000
    C36      C        0.76210    0.51380    0.00400    1.000
    H25      H        0.76420    0.54260    0.12170    1.000
    C37      C        0.77590    0.46810    0.12200    1.000
    H26      H        0.78740    0.46510    0.31680    1.000
    C38      C        0.75530    0.42870    0.65100    1.000
    H27      H        0.75320    0.39980    0.53420    1.000
    C39      C        0.74190    0.47520    0.54200    1.000
    H28      H        0.73050    0.47800    0.34690    1.000
    C40      C        0.78660    0.37490    0.05200    1.000
    O8       O        0.77030    0.37200    0.31800    1.000
    C41      C        0.79360    0.51050    0.81100    1.000
    H29      H        0.81670    0.53680    0.79750    1.000
    C42      C        0.80890    0.46420    0.92700    1.000
    H30      H        0.84170    0.45860    0.99260    1.000
    C43      C        0.72180    0.43050    0.84800    1.000
    H31      H        0.69850    0.40430    0.85990    1.000
    C44      C        0.71090    0.47830    0.73600    1.000
    H32      H        0.67820    0.48420    0.66950    1.000
    Zn3      Zn       0.73141    0.78457    0.94750    1.000
    O9       O        0.77400    0.72170    0.00000    1.000
    H33      H        0.79580    0.71010    0.88280    1.000
    N5       N        0.75980    0.85280    0.98000    1.000
    C45      C        0.74330    0.88840    0.15500    1.000
    H34      H        0.71760    0.88440    0.29440    1.000
    N6       N        0.76880    0.93190    0.10700    1.000
    C46      C        0.79940    0.87610    0.80600    1.000
    O10      O        0.73630    0.16300    0.49300    1.000
    C47      C        0.82880    0.85430    0.58700    1.000
    H35      H        0.82440    0.82070    0.53540    1.000
    O11      O        0.67210    0.13670    0.40900    1.000
    C48      C        0.86490    0.88320    0.44600    1.000
    C49      C        0.89520    0.86290    0.22700    1.000
    H36      H        0.89090    0.82920    0.17610    1.000
    C50      C        0.93160    0.89030    0.08000    1.000
    H37      H        0.95160    0.87610    0.93200    1.000
    C51      C        0.93690    0.94010    0.16400    1.000
    H38      H        0.96100    0.96020    0.07100    1.000
    C52      C        0.90690    0.96030    0.38300    1.000
    H39      H        0.91150    0.99400    0.43420    1.000
    C53      C        0.87020    0.93300    0.53000    1.000
    C54      C        0.84080    0.95470    0.74800    1.000
    H40      H        0.84330    0.98900    0.78930    1.000
    C55      C        0.80760    0.92470    0.90300    1.000
    C56      C        0.75490    0.98210    0.21500    1.000
    C57      C        0.72810    0.07320    0.43900    1.000
    C58      C        0.73790    0.98620    0.50400    1.000
    H41      H        0.73580    0.95740    0.62170    1.000
    C59      C        0.72410    0.03190    0.62200    1.000
    H42      H        0.71260    0.03490    0.81680    1.000
    C60      C        0.74470    0.07130    0.15100    1.000
    H43      H        0.74680    0.10020    0.03420    1.000
    C61      C        0.75810    0.02480    0.04200    1.000
    H44      H        0.76950    0.02200    0.84690    1.000
    C62      C        0.71340    0.12510    0.55200    1.000
    O12      O        0.72970    0.12800    0.81800    1.000
    C63      C        0.70640    0.98950    0.31100    1.000
    H45      H        0.68330    0.96320    0.29750    1.000
    C64      C        0.69110    0.03580    0.42700    1.000
    H46      H        0.65830    0.04140    0.49260    1.000
    C65      C        0.77820    0.06950    0.34800    1.000
    H47      H        0.80150    0.09570    0.35990    1.000
    C66      C        0.78910    0.02170    0.23600    1.000
    H48      H        0.82180    0.01580    0.16950    1.000
    Zn4      Zn       0.23141    0.28457    0.44750    1.000
    O13      O        0.27400    0.22170    0.50000    1.000
    H49      H        0.29580    0.21010    0.38280    1.000
    N7       N        0.25980    0.35280    0.48000    1.000
    C67      C        0.24330    0.38840    0.65500    1.000
    H50      H        0.21760    0.38440    0.79440    1.000
    N8       N        0.26880    0.43190    0.60700    1.000
    C68      C        0.29940    0.37610    0.30600    1.000
    O14      O        0.23630    0.66300    0.99300    1.000
    C69      C        0.32880    0.35430    0.08700    1.000
    H51      H        0.32440    0.32070    0.03540    1.000
    O15      O        0.17210    0.63670    0.90900    1.000
    C70      C        0.36490    0.38320    0.94600    1.000
    C71      C        0.39520    0.36290    0.72700    1.000
    H52      H        0.39090    0.32920    0.67610    1.000
    C72      C        0.43160    0.39030    0.58000    1.000
    H53      H        0.45160    0.37610    0.43200    1.000
    C73      C        0.43690    0.44010    0.66400    1.000
    H54      H        0.46100    0.46020    0.57100    1.000
    C74      C        0.40690    0.46030    0.88300    1.000
    H55      H        0.41150    0.49400    0.93420    1.000
    C75      C        0.37020    0.43300    0.03000    1.000
    C76      C        0.34080    0.45470    0.24800    1.000
    H56      H        0.34330    0.48900    0.28930    1.000
    C77      C        0.30760    0.42470    0.40300    1.000
    C78      C        0.25490    0.48210    0.71500    1.000
    C79      C        0.22810    0.57320    0.93900    1.000
    C80      C        0.23790    0.48620    0.00400    1.000
    H57      H        0.23580    0.45740    0.12170    1.000
    C81      C        0.22410    0.53190    0.12200    1.000
    H58      H        0.21260    0.53490    0.31680    1.000
    C82      C        0.24470    0.57130    0.65100    1.000
    H59      H        0.24680    0.60020    0.53420    1.000
    C83      C        0.25810    0.52480    0.54200    1.000
    H60      H        0.26950    0.52200    0.34690    1.000
    C84      C        0.21340    0.62510    0.05200    1.000
    O16      O        0.22970    0.62800    0.31800    1.000
    C85      C        0.20640    0.48950    0.81100    1.000
    H61      H        0.18330    0.46320    0.79750    1.000
    C86      C        0.19110    0.53580    0.92700    1.000
    H62      H        0.15830    0.54140    0.99260    1.000
    C87      C        0.27820    0.56950    0.84800    1.000
    H63      H        0.30150    0.59570    0.85990    1.000
    C88      C        0.28910    0.52170    0.73600    1.000
    H64      H        0.32180    0.51580    0.66950    1.000
    Zn5      Zn       0.21543    0.73141    0.05250    1.000
    O17      O        0.27830    0.77400    0.00000    1.000
    H65      H        0.28990    0.79580    0.11720    1.000
    N9       N        0.14720    0.75980    0.02000    1.000
    C89      C        0.11160    0.74330    0.84500    1.000
    H66      H        0.11560    0.71760    0.70560    1.000
    N10      N        0.06810    0.76880    0.89300    1.000
    C90      C        0.12390    0.79940    0.19400    1.000
    O18      O        0.83700    0.73630    0.50700    1.000
    C91      C        0.14570    0.82880    0.41300    1.000
    H67      H        0.17930    0.82440    0.46460    1.000
    O19      O        0.86330    0.67210    0.59100    1.000
    C92      C        0.11680    0.86490    0.55400    1.000
    C93      C        0.13710    0.89520    0.77300    1.000
    H68      H        0.17080    0.89090    0.82390    1.000
    C94      C        0.10970    0.93160    0.92000    1.000
    H69      H        0.12390    0.95160    0.06800    1.000
    C95      C        0.05990    0.93690    0.83600    1.000
    H70      H        0.03980    0.96100    0.92900    1.000
    C96      C        0.03970    0.90690    0.61700    1.000
    H71      H        0.00600    0.91150    0.56580    1.000
    C97      C        0.06700    0.87020    0.47000    1.000
    C98      C        0.04530    0.84080    0.25200    1.000
    H72      H        0.01100    0.84330    0.21070    1.000
    C99      C        0.07530    0.80760    0.09700    1.000
    C100     C        0.01790    0.75490    0.78500    1.000
    C101     C        0.92680    0.72810    0.56100    1.000
    C102     C        0.01380    0.73790    0.49600    1.000
    H73      H        0.04260    0.73580    0.37830    1.000
    C103     C        0.96810    0.72410    0.37800    1.000
    H74      H        0.96510    0.71260    0.18320    1.000
    C104     C        0.92870    0.74470    0.84900    1.000
    H75      H        0.89980    0.74680    0.96580    1.000
    C105     C        0.97520    0.75810    0.95800    1.000
    H76      H        0.97800    0.76950    0.15310    1.000
    C106     C        0.87490    0.71340    0.44800    1.000
    O20      O        0.87200    0.72970    0.18200    1.000
    C107     C        0.01050    0.70640    0.68900    1.000
    H77      H        0.03680    0.68330    0.70250    1.000
    C108     C        0.96420    0.69110    0.57300    1.000
    H78      H        0.95860    0.65830    0.50740    1.000
    C109     C        0.93050    0.77820    0.65200    1.000
    H79      H        0.90430    0.80150    0.64010    1.000
    C110     C        0.97830    0.78910    0.76400    1.000
    H80      H        0.98420    0.82180    0.83050    1.000
    Zn6      Zn       0.71543    0.23141    0.55250    1.000
    O21      O        0.77830    0.27400    0.50000    1.000
    H81      H        0.78990    0.29580    0.61720    1.000
    N11      N        0.64720    0.25980    0.52000    1.000
    C111     C        0.61160    0.24330    0.34500    1.000
    H82      H        0.61560    0.21760    0.20560    1.000
    N12      N        0.56810    0.26880    0.39300    1.000
    C112     C        0.62390    0.29940    0.69400    1.000
    O22      O        0.33700    0.23630    0.00700    1.000
    C113     C        0.64570    0.32880    0.91300    1.000
    H83      H        0.67930    0.32440    0.96460    1.000
    O23      O        0.36330    0.17210    0.09100    1.000
    C114     C        0.61680    0.36490    0.05400    1.000
    C115     C        0.63710    0.39520    0.27300    1.000
    H84      H        0.67080    0.39090    0.32390    1.000
    C116     C        0.60970    0.43160    0.42000    1.000
    H85      H        0.62390    0.45160    0.56800    1.000
    C117     C        0.55990    0.43690    0.33600    1.000
    H86      H        0.53980    0.46100    0.42900    1.000
    C118     C        0.53970    0.40690    0.11700    1.000
    H87      H        0.50600    0.41150    0.06580    1.000
    C119     C        0.56700    0.37020    0.97000    1.000
    C120     C        0.54530    0.34080    0.75200    1.000
    H88      H        0.51100    0.34330    0.71070    1.000
    C121     C        0.57530    0.30760    0.59700    1.000
    C122     C        0.51790    0.25490    0.28500    1.000
    C123     C        0.42680    0.22810    0.06100    1.000
    C124     C        0.51380    0.23790    0.99600    1.000
    H89      H        0.54260    0.23580    0.87830    1.000
    C125     C        0.46810    0.22410    0.87800    1.000
    H90      H        0.46510    0.21260    0.68320    1.000
    C126     C        0.42870    0.24470    0.34900    1.000
    H91      H        0.39980    0.24680    0.46580    1.000
    C127     C        0.47520    0.25810    0.45800    1.000
    H92      H        0.47800    0.26950    0.65310    1.000
    C128     C        0.37490    0.21340    0.94800    1.000
    O24      O        0.37200    0.22970    0.68200    1.000
    C129     C        0.51050    0.20640    0.18900    1.000
    H93      H        0.53680    0.18330    0.20250    1.000
    C130     C        0.46420    0.19110    0.07300    1.000
    H94      H        0.45860    0.15830    0.00740    1.000
    C131     C        0.43050    0.27820    0.15200    1.000
    H95      H        0.40430    0.30150    0.14010    1.000
    C132     C        0.47830    0.28910    0.26400    1.000
    H96      H        0.48420    0.32180    0.33050    1.000
    Zn7      Zn       0.78457    0.26859    0.05250    1.000
    O25      O        0.72170    0.22600    0.00000    1.000
    H97      H        0.71010    0.20420    0.11720    1.000
    N13      N        0.85280    0.24020    0.02000    1.000
    C133     C        0.88840    0.25670    0.84500    1.000
    H98      H        0.88440    0.28240    0.70560    1.000
    N14      N        0.93190    0.23120    0.89300    1.000
    C134     C        0.87610    0.20060    0.19400    1.000
    O26      O        0.16300    0.26370    0.50700    1.000
    C135     C        0.85430    0.17120    0.41300    1.000
    H99      H        0.82070    0.17560    0.46460    1.000
    O27      O        0.13670    0.32790    0.59100    1.000
    C136     C        0.88320    0.13510    0.55400    1.000
    C137     C        0.86290    0.10480    0.77300    1.000
    H100     H        0.82920    0.10910    0.82390    1.000
    C138     C        0.89030    0.06840    0.92000    1.000
    H101     H        0.87610    0.04840    0.06800    1.000
    C139     C        0.94010    0.06310    0.83600    1.000
    H102     H        0.96020    0.03900    0.92900    1.000
    C140     C        0.96030    0.09310    0.61700    1.000
    H103     H        0.99400    0.08850    0.56580    1.000
    C141     C        0.93300    0.12980    0.47000    1.000
    C142     C        0.95470    0.15920    0.25200    1.000
    H104     H        0.98900    0.15670    0.21070    1.000
    C143     C        0.92470    0.19240    0.09700    1.000
    C144     C        0.98210    0.24510    0.78500    1.000
    C145     C        0.07320    0.27190    0.56100    1.000
    C146     C        0.98620    0.26210    0.49600    1.000
    H105     H        0.95740    0.26420    0.37830    1.000
    C147     C        0.03190    0.27590    0.37800    1.000
    H106     H        0.03490    0.28740    0.18320    1.000
    C148     C        0.07130    0.25530    0.84900    1.000
    H107     H        0.10020    0.25320    0.96580    1.000
    C149     C        0.02480    0.24190    0.95800    1.000
    H108     H        0.02200    0.23050    0.15310    1.000
    C150     C        0.12510    0.28660    0.44800    1.000
    O28      O        0.12800    0.27030    0.18200    1.000
    C151     C        0.98950    0.29360    0.68900    1.000
    H109     H        0.96320    0.31670    0.70250    1.000
    C152     C        0.03580    0.30890    0.57300    1.000
    H110     H        0.04140    0.34170    0.50740    1.000
    C153     C        0.06950    0.22180    0.65200    1.000
    H111     H        0.09570    0.19850    0.64010    1.000
    C154     C        0.02170    0.21090    0.76400    1.000
    H112     H        0.01580    0.17820    0.83050    1.000
    Zn8      Zn       0.28457    0.76859    0.55250    1.000
    O29      O        0.22170    0.72600    0.50000    1.000
    H113     H        0.21010    0.70420    0.61720    1.000
    N15      N        0.35280    0.74020    0.52000    1.000
    C155     C        0.38840    0.75670    0.34500    1.000
    H114     H        0.38440    0.78240    0.20560    1.000
    N16      N        0.43190    0.73120    0.39300    1.000
    C156     C        0.37610    0.70060    0.69400    1.000
    O30      O        0.66300    0.76370    0.00700    1.000
    C157     C        0.35430    0.67120    0.91300    1.000
    H115     H        0.32070    0.67560    0.96460    1.000
    O31      O        0.63670    0.82790    0.09100    1.000
    C158     C        0.38320    0.63510    0.05400    1.000
    C159     C        0.36290    0.60480    0.27300    1.000
    H116     H        0.32920    0.60910    0.32390    1.000
    C160     C        0.39030    0.56840    0.42000    1.000
    H117     H        0.37610    0.54840    0.56800    1.000
    C161     C        0.44010    0.56310    0.33600    1.000
    H118     H        0.46020    0.53900    0.42900    1.000
    C162     C        0.46030    0.59310    0.11700    1.000
    H119     H        0.49400    0.58850    0.06580    1.000
    C163     C        0.43300    0.62980    0.97000    1.000
    C164     C        0.45470    0.65920    0.75200    1.000
    H120     H        0.48900    0.65670    0.71070    1.000
    C165     C        0.42470    0.69240    0.59700    1.000
    C166     C        0.48210    0.74510    0.28500    1.000
    C167     C        0.57320    0.77190    0.06100    1.000
    C168     C        0.48620    0.76210    0.99600    1.000
    H121     H        0.45740    0.76420    0.87830    1.000
    C169     C        0.53190    0.77590    0.87800    1.000
    H122     H        0.53490    0.78740    0.68320    1.000
    C170     C        0.57130    0.75530    0.34900    1.000
    H123     H        0.60020    0.75320    0.46580    1.000
    C171     C        0.52480    0.74190    0.45800    1.000
    H124     H        0.52200    0.73050    0.65310    1.000
    C172     C        0.62510    0.78660    0.94800    1.000
    O32      O        0.62800    0.77030    0.68200    1.000
    C173     C        0.48950    0.79360    0.18900    1.000
    H125     H        0.46320    0.81670    0.20250    1.000
    C174     C        0.53580    0.80890    0.07300    1.000
    H126     H        0.54140    0.84170    0.00740    1.000
    C175     C        0.56950    0.72180    0.15200    1.000
    H127     H        0.59570    0.69850    0.14010    1.000
    C176     C        0.52170    0.71090    0.26400    1.000
    H128     H        0.51580    0.67820    0.33050    1.000
