# CIF file generated by openbabel 3.1.0, see https://openbabel.org
data_I
_chemical_name_common 'image0'
_cell_length_a 16.6052
_cell_length_b 16.0739
_cell_length_c 10.2819
_cell_angle_alpha 90
_cell_angle_beta 94.4
_cell_angle_gamma 90
_space_group_name_H-M_alt 'P 1'
_space_group_name_Hall 'P 1'
loop_
    _symmetry_equiv_pos_as_xyz
    x,y,z
loop_
    _atom_site_label
    _atom_site_type_symbol
    _atom_site_fract_x
    _atom_site_fract_y
    _atom_site_fract_z
    _atom_site_occupancy
    Tb1      Tb       0.03811    0.62257    0.54304    1.000
    O1       O        0.35713    0.32015    0.44561    1.000
    H1       H        0.34800    0.34300    0.40100    1.000
    C1       C        0.30887    0.33277    0.54370    1.000
    C2       C        0.32135    0.28826    0.66130    1.000
    C3       C        0.26866    0.30206    0.75850    1.000
    H2       H        0.27590    0.27110    0.83730    1.000
    C4       C        0.20596    0.35938    0.74440    1.000
    C5       C        0.19688    0.40606    0.62850    1.000
    C6       C        0.24726    0.39183    0.52990    1.000
    H3       H        0.23980    0.42290    0.45130    1.000
    C7       C        0.38902    0.22786    0.68930    1.000
    O2       O        0.42014    0.19291    0.59651    1.000
    O3       O        0.41002    0.21506    0.80829    1.000
    C8       C        0.15015    0.36828    0.85010    1.000
    O4       O        0.15708    0.32078    0.94732    1.000
    O5       O        0.09438    0.42327    0.84079    1.000
    C9       C        0.13658    0.47433    0.60650    1.000
    O6       O        0.06771    0.46091    0.54841    1.000
    O7       O        0.15686    0.54701    0.64085    1.000
    H4       H        0.96700    0.52400    0.72300    1.000
    Tb2      Tb       0.53810    0.12257    0.54304    1.000
    O8       O        0.85713    0.82015    0.44561    1.000
    H5       H        0.84800    0.84300    0.40100    1.000
    C10      C        0.80887    0.83277    0.54370    1.000
    C11      C        0.82135    0.78826    0.66130    1.000
    C12      C        0.76866    0.80206    0.75850    1.000
    H6       H        0.77590    0.77110    0.83730    1.000
    C13      C        0.70596    0.85938    0.74440    1.000
    C14      C        0.69688    0.90606    0.62850    1.000
    C15      C        0.74726    0.89183    0.52990    1.000
    H7       H        0.73980    0.92290    0.45130    1.000
    C16      C        0.88902    0.72786    0.68930    1.000
    O9       O        0.92014    0.69291    0.59651    1.000
    O10      O        0.91002    0.71506    0.80829    1.000
    C17      C        0.65015    0.86828    0.85010    1.000
    O11      O        0.65708    0.82078    0.94732    1.000
    O12      O        0.59438    0.92327    0.84079    1.000
    C18      C        0.63658    0.97433    0.60650    1.000
    O13      O        0.56771    0.96091    0.54841    1.000
    O14      O        0.65686    0.04701    0.64085    1.000
    H8       H        0.46700    0.02400    0.72300    1.000
    Tb3      Tb       0.96189    0.62257    0.95696    1.000
    O15      O        0.64287    0.32015    0.05439    1.000
    H9       H        0.65200    0.34300    0.09900    1.000
    C19      C        0.69113    0.33277    0.95630    1.000
    C20      C        0.67865    0.28826    0.83870    1.000
    C21      C        0.73134    0.30206    0.74150    1.000
    H10      H        0.72410    0.27110    0.66270    1.000
    C22      C        0.79404    0.35938    0.75560    1.000
    C23      C        0.80312    0.40606    0.87150    1.000
    C24      C        0.75274    0.39183    0.97010    1.000
    H11      H        0.76020    0.42290    0.04870    1.000
    C25      C        0.61098    0.22786    0.81070    1.000
    O16      O        0.57986    0.19291    0.90349    1.000
    O17      O        0.58998    0.21506    0.69171    1.000
    C26      C        0.84985    0.36828    0.64990    1.000
    O18      O        0.84292    0.32078    0.55268    1.000
    O19      O        0.90562    0.42327    0.65921    1.000
    C27      C        0.86342    0.47433    0.89350    1.000
    O20      O        0.93229    0.46091    0.95159    1.000
    O21      O        0.84314    0.54701    0.85915    1.000
    H12      H        0.03300    0.52400    0.77700    1.000
    Tb4      Tb       0.46189    0.12257    0.95696    1.000
    O22      O        0.14287    0.82015    0.05439    1.000
    H13      H        0.15200    0.84300    0.09900    1.000
    C28      C        0.19113    0.83277    0.95630    1.000
    C29      C        0.17865    0.78826    0.83870    1.000
    C30      C        0.23134    0.80206    0.74150    1.000
    H14      H        0.22410    0.77110    0.66270    1.000
    C31      C        0.29404    0.85938    0.75560    1.000
    C32      C        0.30312    0.90606    0.87150    1.000
    C33      C        0.25274    0.89183    0.97010    1.000
    H15      H        0.26020    0.92290    0.04870    1.000
    C34      C        0.11098    0.72786    0.81070    1.000
    O23      O        0.07986    0.69291    0.90349    1.000
    O24      O        0.08998    0.71506    0.69171    1.000
    C35      C        0.34985    0.86828    0.64990    1.000
    O25      O        0.34292    0.82078    0.55268    1.000
    O26      O        0.40562    0.92327    0.65921    1.000
    C36      C        0.36342    0.97433    0.89350    1.000
    O27      O        0.43229    0.96091    0.95159    1.000
    O28      O        0.34314    0.04701    0.85915    1.000
    H16      H        0.53300    0.02400    0.77700    1.000
    Tb5      Tb       0.96189    0.37743    0.45696    1.000
    O29      O        0.64287    0.67985    0.55439    1.000
    H17      H        0.65200    0.65700    0.59900    1.000
    C37      C        0.69113    0.66723    0.45630    1.000
    C38      C        0.67865    0.71174    0.33870    1.000
    C39      C        0.73134    0.69794    0.24150    1.000
    H18      H        0.72410    0.72890    0.16270    1.000
    C40      C        0.79404    0.64062    0.25560    1.000
    C41      C        0.80312    0.59394    0.37150    1.000
    C42      C        0.75274    0.60817    0.47010    1.000
    H19      H        0.76020    0.57710    0.54870    1.000
    C43      C        0.61098    0.77214    0.31070    1.000
    O30      O        0.57986    0.80709    0.40349    1.000
    O31      O        0.58998    0.78494    0.19171    1.000
    C44      C        0.84985    0.63172    0.14990    1.000
    O32      O        0.84292    0.67922    0.05268    1.000
    O33      O        0.90562    0.57673    0.15921    1.000
    C45      C        0.86342    0.52567    0.39350    1.000
    O34      O        0.93229    0.53909    0.45159    1.000
    O35      O        0.84314    0.45299    0.35915    1.000
    H20      H        0.03300    0.47600    0.27700    1.000
    Tb6      Tb       0.46189    0.87743    0.45696    1.000
    O36      O        0.14287    0.17985    0.55439    1.000
    H21      H        0.15200    0.15700    0.59900    1.000
    C46      C        0.19113    0.16723    0.45630    1.000
    C47      C        0.17865    0.21174    0.33870    1.000
    C48      C        0.23134    0.19794    0.24150    1.000
    H22      H        0.22410    0.22890    0.16270    1.000
    C49      C        0.29404    0.14062    0.25560    1.000
    C50      C        0.30312    0.09394    0.37150    1.000
    C51      C        0.25274    0.10817    0.47010    1.000
    H23      H        0.26020    0.07710    0.54870    1.000
    C52      C        0.11098    0.27214    0.31070    1.000
    O37      O        0.07986    0.30709    0.40349    1.000
    O38      O        0.08998    0.28494    0.19171    1.000
    C53      C        0.34985    0.13172    0.14990    1.000
    O39      O        0.34292    0.17922    0.05268    1.000
    O40      O        0.40562    0.07673    0.15921    1.000
    C54      C        0.36342    0.02567    0.39350    1.000
    O41      O        0.43229    0.03909    0.45159    1.000
    O42      O        0.34314    0.95299    0.35915    1.000
    H24      H        0.53300    0.97600    0.27700    1.000
    Tb7      Tb       0.03811    0.37743    0.04304    1.000
    O43      O        0.35713    0.67985    0.94561    1.000
    H25      H        0.34800    0.65700    0.90100    1.000
    C55      C        0.30887    0.66723    0.04370    1.000
    C56      C        0.32135    0.71174    0.16130    1.000
    C57      C        0.26866    0.69794    0.25850    1.000
    H26      H        0.27590    0.72890    0.33730    1.000
    C58      C        0.20596    0.64062    0.24440    1.000
    C59      C        0.19688    0.59394    0.12850    1.000
    C60      C        0.24726    0.60817    0.02990    1.000
    H27      H        0.23980    0.57710    0.95130    1.000
    C61      C        0.38902    0.77214    0.18930    1.000
    O44      O        0.42014    0.80709    0.09651    1.000
    O45      O        0.41002    0.78494    0.30829    1.000
    C62      C        0.15015    0.63172    0.35010    1.000
    O46      O        0.15708    0.67922    0.44732    1.000
    O47      O        0.09438    0.57673    0.34079    1.000
    C63      C        0.13658    0.52567    0.10650    1.000
    O48      O        0.06771    0.53909    0.04841    1.000
    O49      O        0.15686    0.45299    0.14085    1.000
    H28      H        0.96700    0.47600    0.22300    1.000
    Tb8      Tb       0.53810    0.87743    0.04304    1.000
    O50      O        0.85713    0.17985    0.94561    1.000
    H29      H        0.84800    0.15700    0.90100    1.000
    C64      C        0.80887    0.16723    0.04370    1.000
    C65      C        0.82135    0.21174    0.16130    1.000
    C66      C        0.76866    0.19794    0.25850    1.000
    H30      H        0.77590    0.22890    0.33730    1.000
    C67      C        0.70596    0.14062    0.24440    1.000
    C68      C        0.69688    0.09394    0.12850    1.000
    C69      C        0.74726    0.10817    0.02990    1.000
    H31      H        0.73980    0.07710    0.95130    1.000
    C70      C        0.88902    0.27214    0.18930    1.000
    O51      O        0.92014    0.30709    0.09651    1.000
    O52      O        0.91002    0.28494    0.30829    1.000
    C71      C        0.65015    0.13172    0.35010    1.000
    O53      O        0.65708    0.17922    0.44732    1.000
    O54      O        0.59438    0.07673    0.34079    1.000
    C72      C        0.63658    0.02567    0.10650    1.000
    O55      O        0.56771    0.03909    0.04841    1.000
    O56      O        0.65686    0.95299    0.14085    1.000
    H32      H        0.46700    0.97600    0.22300    1.000
    O57      O        0.00000    0.55200    0.75000    1.000
    O58      O        0.50000    0.05200    0.75000    1.000
    O59      O        0.00000    0.44800    0.25000    1.000
    O60      O        0.50000    0.94800    0.25000    1.000
