# CIF file generated by openbabel 3.1.0, see https://openbabel.org
data_I
_chemical_name_common 'image0'
_cell_length_a 24.934
_cell_length_b 13.2275
_cell_length_c 16.234
_cell_angle_alpha 90
_cell_angle_beta 127.52
_cell_angle_gamma 90
_space_group_name_H-M_alt 'P 1'
_space_group_name_Hall 'P 1'
loop_
    _symmetry_equiv_pos_as_xyz
    x,y,z
loop_
    _atom_site_label
    _atom_site_type_symbol
    _atom_site_fract_x
    _atom_site_fract_y
    _atom_site_fract_z
    _atom_site_occupancy
    Cd1      Cd       0.17145    0.20028    0.38257    1.000
    C1       C        0.14690    0.39520    0.56720    1.000
    C2       C        0.08570    0.41010    0.54550    1.000
    H1       H        0.04860    0.37130    0.49540    1.000
    C3       C        0.07930    0.48620    0.60050    1.000
    H2       H        0.03650    0.50200    0.58050    1.000
    C4       C        0.13560    0.53810    0.68410    1.000
    C5       C        0.19670    0.50630    0.71330    1.000
    H3       H        0.23600    0.53120    0.77420    1.000
    C6       C        0.20180    0.43660    0.65320    1.000
    H4       H        0.24440    0.41870    0.67350    1.000
    C7       C        0.15310    0.32390    0.50270    1.000
    C8       C        0.12790    0.61490    0.74340    1.000
    C9       C        0.07780    0.10610    0.19580    1.000
    C10      C        0.03760    0.05160    0.09480    1.000
    C11      C        0.96830    0.05170    0.03310    1.000
    H5       H        0.94610    0.08770    0.05340    1.000
    C12      C        0.06890    0.00220    0.06000    1.000
    H6       H        0.11580    0.00470    0.09920    1.000
    O1       O        0.10006    0.28630    0.42170    1.000
    O2       O        0.21067    0.29900    0.53080    1.000
    O3       O        0.18056    0.65310    0.82000    1.000
    O4       O        0.06980    0.63810    0.70980    1.000
    O5       O        0.14210    0.10370    0.24920    1.000
    O6       O        0.04968    0.14970    0.22680    1.000
    Cd2      Cd       0.67145    0.70028    0.38257    1.000
    C13      C        0.64690    0.89520    0.56720    1.000
    C14      C        0.58570    0.91010    0.54550    1.000
    H7       H        0.54860    0.87130    0.49540    1.000
    C15      C        0.57930    0.98620    0.60050    1.000
    H8       H        0.53650    0.00200    0.58050    1.000
    C16      C        0.63560    0.03810    0.68410    1.000
    C17      C        0.69670    0.00630    0.71330    1.000
    H9       H        0.73600    0.03120    0.77420    1.000
    C18      C        0.70180    0.93660    0.65320    1.000
    H10      H        0.74440    0.91870    0.67350    1.000
    C19      C        0.65310    0.82390    0.50270    1.000
    C20      C        0.62790    0.11490    0.74340    1.000
    C21      C        0.57780    0.60610    0.19580    1.000
    C22      C        0.53760    0.55160    0.09480    1.000
    C23      C        0.46830    0.55170    0.03310    1.000
    H11      H        0.44610    0.58770    0.05340    1.000
    C24      C        0.56890    0.50220    0.06000    1.000
    H12      H        0.61580    0.50470    0.09920    1.000
    O7       O        0.60006    0.78630    0.42170    1.000
    O8       O        0.71067    0.79900    0.53080    1.000
    O9       O        0.68056    0.15310    0.82000    1.000
    O10      O        0.56980    0.13810    0.70980    1.000
    O11      O        0.64210    0.60370    0.24920    1.000
    O12      O        0.54968    0.64970    0.22680    1.000
    Cd3      Cd       0.82855    0.20028    0.11743    1.000
    C25      C        0.85310    0.39520    0.93280    1.000
    C26      C        0.91430    0.41010    0.95450    1.000
    H13      H        0.95140    0.37130    0.00460    1.000
    C27      C        0.92070    0.48620    0.89950    1.000
    H14      H        0.96350    0.50200    0.91950    1.000
    C28      C        0.86440    0.53810    0.81590    1.000
    C29      C        0.80330    0.50630    0.78670    1.000
    H15      H        0.76400    0.53120    0.72580    1.000
    C30      C        0.79820    0.43660    0.84680    1.000
    H16      H        0.75560    0.41870    0.82650    1.000
    C31      C        0.84690    0.32390    0.99730    1.000
    C32      C        0.87210    0.61490    0.75660    1.000
    C33      C        0.92220    0.10610    0.30420    1.000
    C34      C        0.96240    0.05160    0.40520    1.000
    C35      C        0.03170    0.05170    0.46690    1.000
    H17      H        0.05390    0.08770    0.44660    1.000
    C36      C        0.93110    0.00220    0.44000    1.000
    H18      H        0.88420    0.00470    0.40080    1.000
    O13      O        0.89994    0.28630    0.07830    1.000
    O14      O        0.78933    0.29900    0.96920    1.000
    O15      O        0.81944    0.65310    0.68000    1.000
    O16      O        0.93020    0.63810    0.79020    1.000
    O17      O        0.85790    0.10370    0.25080    1.000
    O18      O        0.95032    0.14970    0.27320    1.000
    Cd4      Cd       0.32855    0.70028    0.11743    1.000
    C37      C        0.35310    0.89520    0.93280    1.000
    C38      C        0.41430    0.91010    0.95450    1.000
    H19      H        0.45140    0.87130    0.00460    1.000
    C39      C        0.42070    0.98620    0.89950    1.000
    H20      H        0.46350    0.00200    0.91950    1.000
    C40      C        0.36440    0.03810    0.81590    1.000
    C41      C        0.30330    0.00630    0.78670    1.000
    H21      H        0.26400    0.03120    0.72580    1.000
    C42      C        0.29820    0.93660    0.84680    1.000
    H22      H        0.25560    0.91870    0.82650    1.000
    C43      C        0.34690    0.82390    0.99730    1.000
    C44      C        0.37210    0.11490    0.75660    1.000
    C45      C        0.42220    0.60610    0.30420    1.000
    C46      C        0.46240    0.55160    0.40520    1.000
    C47      C        0.53170    0.55170    0.46690    1.000
    H23      H        0.55390    0.58770    0.44660    1.000
    C48      C        0.43110    0.50220    0.44000    1.000
    H24      H        0.38420    0.50470    0.40080    1.000
    O19      O        0.39994    0.78630    0.07830    1.000
    O20      O        0.28933    0.79900    0.96920    1.000
    O21      O        0.31944    0.15310    0.68000    1.000
    O22      O        0.43020    0.13810    0.79020    1.000
    O23      O        0.35790    0.60370    0.25080    1.000
    O24      O        0.45032    0.64970    0.27320    1.000
    Cd5      Cd       0.82855    0.79972    0.61743    1.000
    C49      C        0.85310    0.60480    0.43280    1.000
    C50      C        0.91430    0.58990    0.45450    1.000
    H25      H        0.95140    0.62870    0.50460    1.000
    C51      C        0.92070    0.51380    0.39950    1.000
    H26      H        0.96350    0.49800    0.41950    1.000
    C52      C        0.86440    0.46190    0.31590    1.000
    C53      C        0.80330    0.49370    0.28670    1.000
    H27      H        0.76400    0.46880    0.22580    1.000
    C54      C        0.79820    0.56340    0.34680    1.000
    H28      H        0.75560    0.58130    0.32650    1.000
    C55      C        0.84690    0.67610    0.49730    1.000
    C56      C        0.87210    0.38510    0.25660    1.000
    C57      C        0.92220    0.89390    0.80420    1.000
    C58      C        0.96240    0.94840    0.90520    1.000
    C59      C        0.03170    0.94830    0.96690    1.000
    H29      H        0.05390    0.91230    0.94660    1.000
    C60      C        0.93110    0.99780    0.94000    1.000
    H30      H        0.88420    0.99530    0.90080    1.000
    O25      O        0.89994    0.71370    0.57830    1.000
    O26      O        0.78933    0.70100    0.46920    1.000
    O27      O        0.81944    0.34690    0.18000    1.000
    O28      O        0.93020    0.36190    0.29020    1.000
    O29      O        0.85790    0.89630    0.75080    1.000
    O30      O        0.95032    0.85030    0.77320    1.000
    Cd6      Cd       0.32855    0.29972    0.61743    1.000
    C61      C        0.35310    0.10480    0.43280    1.000
    C62      C        0.41430    0.08990    0.45450    1.000
    H31      H        0.45140    0.12870    0.50460    1.000
    C63      C        0.42070    0.01380    0.39950    1.000
    H32      H        0.46350    0.99800    0.41950    1.000
    C64      C        0.36440    0.96190    0.31590    1.000
    C65      C        0.30330    0.99370    0.28670    1.000
    H33      H        0.26400    0.96880    0.22580    1.000
    C66      C        0.29820    0.06340    0.34680    1.000
    H34      H        0.25560    0.08130    0.32650    1.000
    C67      C        0.34690    0.17610    0.49730    1.000
    C68      C        0.37210    0.88510    0.25660    1.000
    C69      C        0.42220    0.39390    0.80420    1.000
    C70      C        0.46240    0.44840    0.90520    1.000
    C71      C        0.53170    0.44830    0.96690    1.000
    H35      H        0.55390    0.41230    0.94660    1.000
    C72      C        0.43110    0.49780    0.94000    1.000
    H36      H        0.38420    0.49530    0.90080    1.000
    O31      O        0.39994    0.21370    0.57830    1.000
    O32      O        0.28933    0.20100    0.46920    1.000
    O33      O        0.31944    0.84690    0.18000    1.000
    O34      O        0.43020    0.86190    0.29020    1.000
    O35      O        0.35790    0.39630    0.75080    1.000
    O36      O        0.45032    0.35030    0.77320    1.000
    Cd7      Cd       0.17145    0.79972    0.88257    1.000
    C73      C        0.14690    0.60480    0.06720    1.000
    C74      C        0.08570    0.58990    0.04550    1.000
    H37      H        0.04860    0.62870    0.99540    1.000
    C75      C        0.07930    0.51380    0.10050    1.000
    H38      H        0.03650    0.49800    0.08050    1.000
    C76      C        0.13560    0.46190    0.18410    1.000
    C77      C        0.19670    0.49370    0.21330    1.000
    H39      H        0.23600    0.46880    0.27420    1.000
    C78      C        0.20180    0.56340    0.15320    1.000
    H40      H        0.24440    0.58130    0.17350    1.000
    C79      C        0.15310    0.67610    0.00270    1.000
    C80      C        0.12790    0.38510    0.24340    1.000
    C81      C        0.07780    0.89390    0.69580    1.000
    C82      C        0.03760    0.94840    0.59480    1.000
    C83      C        0.96830    0.94830    0.53310    1.000
    H41      H        0.94610    0.91230    0.55340    1.000
    C84      C        0.06890    0.99780    0.56000    1.000
    H42      H        0.11580    0.99530    0.59920    1.000
    O37      O        0.10006    0.71370    0.92170    1.000
    O38      O        0.21067    0.70100    0.03080    1.000
    O39      O        0.18056    0.34690    0.32000    1.000
    O40      O        0.06980    0.36190    0.20980    1.000
    O41      O        0.14210    0.89630    0.74920    1.000
    O42      O        0.04968    0.85030    0.72680    1.000
    Cd8      Cd       0.67145    0.29972    0.88257    1.000
    C85      C        0.64690    0.10480    0.06720    1.000
    C86      C        0.58570    0.08990    0.04550    1.000
    H43      H        0.54860    0.12870    0.99540    1.000
    C87      C        0.57930    0.01380    0.10050    1.000
    H44      H        0.53650    0.99800    0.08050    1.000
    C88      C        0.63560    0.96190    0.18410    1.000
    C89      C        0.69670    0.99370    0.21330    1.000
    H45      H        0.73600    0.96880    0.27420    1.000
    C90      C        0.70180    0.06340    0.15320    1.000
    H46      H        0.74440    0.08130    0.17350    1.000
    C91      C        0.65310    0.17610    0.00270    1.000
    C92      C        0.62790    0.88510    0.24340    1.000
    C93      C        0.57780    0.39390    0.69580    1.000
    C94      C        0.53760    0.44840    0.59480    1.000
    C95      C        0.46830    0.44830    0.53310    1.000
    H47      H        0.44610    0.41230    0.55340    1.000
    C96      C        0.56890    0.49780    0.56000    1.000
    H48      H        0.61580    0.49530    0.59920    1.000
    O43      O        0.60006    0.21370    0.92170    1.000
    O44      O        0.71067    0.20100    0.03080    1.000
    O45      O        0.68056    0.84690    0.32000    1.000
    O46      O        0.56980    0.86190    0.20980    1.000
    O47      O        0.64210    0.39630    0.74920    1.000
    O48      O        0.54968    0.35030    0.72680    1.000
    Ca1      Ca       0.00000    0.28959    0.25000    1.000
    Ca2      Ca       0.50000    0.78959    0.25000    1.000
    Ca3      Ca       0.00000    0.71041    0.75000    1.000
    Ca4      Ca       0.50000    0.21041    0.75000    1.000
