# CIF file generated by openbabel 3.1.0, see https://openbabel.org
data_I
_chemical_name_common 'image0'
_cell_length_a 12.29
_cell_length_b 13.7
_cell_length_c 13.798
_cell_angle_alpha 108.736
_cell_angle_beta 92.793
_cell_angle_gamma 114.369
_space_group_name_H-M_alt 'P 1'
_space_group_name_Hall 'P 1'
loop_
    _symmetry_equiv_pos_as_xyz
    x,y,z
loop_
    _atom_site_label
    _atom_site_type_symbol
    _atom_site_fract_x
    _atom_site_fract_y
    _atom_site_fract_z
    _atom_site_occupancy
    Ag1      Ag       0.01746    0.51784    0.77869    1.000
    N1       N        0.21180    0.33920    0.47920    1.000
    C1       C        0.21700    0.77100    0.83600    1.000
    H1       H        0.24630    0.75250    0.77540    1.000
    Ag2      Ag       0.08116    0.41329    0.50536    1.000
    N2       N        0.12150    0.69570    0.86590    1.000
    N3       N        0.92070    0.33780    0.70060    1.000
    Ag3      Ag       0.43042    0.59916    0.56476    1.000
    N4       N        0.16820    0.23400    0.40120    1.000
    N5       N        0.17650    0.60570    0.53980    1.000
    N6       N        0.32930    0.39740    0.49050    1.000
    C2       C        0.54140    0.01360    0.33030    1.000
    H2       H        0.59930    0.00370    0.29270    1.000
    N7       N        0.88050    0.33130    0.45780    1.000
    N8       N        0.79850    0.22020    0.43440    1.000
    N9       N        0.77410    0.16020    0.65250    1.000
    C3       C        0.37140    0.03980    0.44600    1.000
    H3       H        0.31480    0.04730    0.48640    1.000
    N10      N        0.20570    0.86440    0.99360    1.000
    C4       C        0.14480    0.03500    0.22870    1.000
    H4       H        0.07960    0.02960    0.26170    1.000
    N11      N        0.36690    0.33080    0.41820    1.000
    C5       C        0.12530    0.75260    0.96180    1.000
    H5       H        0.07780    0.71980    0.00390    1.000
    C6       C        0.97070    0.26330    0.67040    1.000
    H6       H        0.05260    0.28400    0.66910    1.000
    C7       C        0.80400    0.27200    0.68890    1.000
    H7       H        0.74780    0.30070    0.70470    1.000
    C8       C        0.12950    0.94560    0.13760    1.000
    H8       H        0.05420    0.88050    0.10850    1.000
    C9       C        0.68840    0.21960    0.42530    1.000
    C10      C        0.26000    0.87770    0.91240    1.000
    H9       H        0.31620    0.94700    0.90960    1.000
    C11      C        0.88200    0.15560    0.64300    1.000
    H10      H        0.89210    0.08880    0.62110    1.000
    C12      C        0.48310    0.13260    0.46410    1.000
    H11      H        0.50120    0.20390    0.51520    1.000
    N12      N        0.29730    0.67350    0.55990    1.000
    C13      C        0.42660    0.92140    0.31060    1.000
    H12      H        0.40660    0.85010    0.25850    1.000
    C14      C        0.56920    0.12000    0.40620    1.000
    C15      C        0.22610    0.95480    0.09140    1.000
    C16      C        0.33700    0.04780    0.13330    1.000
    H13      H        0.40210    0.05040    0.10080    1.000
    C17      C        0.25870    0.13420    0.27190    1.000
    C18      C        0.35480    0.13840    0.22310    1.000
    H14      H        0.43120    0.20230    0.25070    1.000
    C19      C        0.26930    0.23430    0.36340    1.000
    C20      C        0.65610    0.06430    0.63240    1.000
    Ag4      Ag       0.05730    0.87530    0.59450    1.000
    O1       O        0.01500    0.04100    0.46900    1.000
    Ag5      Ag       0.88110    0.10250    0.42450    1.000
    Ag6      Ag       0.98254    0.48216    0.22131    1.000
    N13      N        0.78820    0.66080    0.52080    1.000
    C21      C        0.78300    0.22900    0.16400    1.000
    H15      H        0.75370    0.24750    0.22460    1.000
    Ag7      Ag       0.91884    0.58671    0.49464    1.000
    N14      N        0.87850    0.30430    0.13410    1.000
    N15      N        0.07930    0.66220    0.29940    1.000
    Ag8      Ag       0.56958    0.40084    0.43524    1.000
    N16      N        0.83180    0.76600    0.59880    1.000
    N17      N        0.82350    0.39430    0.46020    1.000
    N18      N        0.67070    0.60260    0.50950    1.000
    C22      C        0.45860    0.98640    0.66970    1.000
    H16      H        0.40070    0.99630    0.70730    1.000
    N19      N        0.11950    0.66870    0.54220    1.000
    N20      N        0.20150    0.77980    0.56560    1.000
    N21      N        0.22590    0.83980    0.34750    1.000
    C23      C        0.62860    0.96020    0.55400    1.000
    H17      H        0.68520    0.95270    0.51360    1.000
    N22      N        0.79430    0.13560    0.00640    1.000
    C24      C        0.85520    0.96500    0.77130    1.000
    H18      H        0.92040    0.97040    0.73830    1.000
    N23      N        0.63310    0.66920    0.58180    1.000
    C25      C        0.87470    0.24740    0.03820    1.000
    H19      H        0.92220    0.28020    0.99610    1.000
    C26      C        0.02930    0.73670    0.32960    1.000
    H20      H        0.94740    0.71600    0.33090    1.000
    C27      C        0.19600    0.72800    0.31110    1.000
    H21      H        0.25220    0.69930    0.29530    1.000
    C28      C        0.87050    0.05440    0.86240    1.000
    H22      H        0.94580    0.11950    0.89150    1.000
    C29      C        0.31160    0.78040    0.57470    1.000
    C30      C        0.74000    0.12230    0.08760    1.000
    H23      H        0.68380    0.05300    0.09040    1.000
    C31      C        0.11800    0.84440    0.35700    1.000
    H24      H        0.10790    0.91120    0.37890    1.000
    C32      C        0.51690    0.86740    0.53590    1.000
    H25      H        0.49880    0.79610    0.48480    1.000
    N24      N        0.70270    0.32650    0.44010    1.000
    C33      C        0.57340    0.07860    0.68940    1.000
    H26      H        0.59340    0.14990    0.74150    1.000
    C34      C        0.43080    0.88000    0.59380    1.000
    C35      C        0.77390    0.04520    0.90860    1.000
    C36      C        0.66300    0.95220    0.86670    1.000
    H27      H        0.59790    0.94960    0.89920    1.000
    C37      C        0.74130    0.86580    0.72810    1.000
    C38      C        0.64520    0.86160    0.77690    1.000
    H28      H        0.56880    0.79770    0.74930    1.000
    C39      C        0.73070    0.76570    0.63660    1.000
    C40      C        0.34390    0.93570    0.36760    1.000
    Ag9      Ag       0.94270    0.12470    0.40550    1.000
    O2       O        0.98500    0.95900    0.53100    1.000
    Ag10     Ag       0.11890    0.89750    0.57550    1.000
