# CIF file generated by openbabel 3.1.0, see https://openbabel.org
data_I
_chemical_name_common 'image0'
_cell_length_a 10.335
_cell_length_b 13.3823
_cell_length_c 22.6623
_cell_angle_alpha 100.903
_cell_angle_beta 91.359
_cell_angle_gamma 104.331
_space_group_name_H-M_alt 'P 1'
_space_group_name_Hall 'P 1'
loop_
    _symmetry_equiv_pos_as_xyz
    x,y,z
loop_
    _atom_site_label
    _atom_site_type_symbol
    _atom_site_fract_x
    _atom_site_fract_y
    _atom_site_fract_z
    _atom_site_occupancy
    Cu1      Cu       0.04941    0.54785    0.27955    1.000
    Cu2      Cu       0.41825    0.06113    0.04813    1.000
    S1       S        0.66134    0.92606    0.28119    1.000
    S2       S        0.50045    0.69706    0.24388    1.000
    S3       S        0.60407    0.41311    0.32361    1.000
    S4       S        0.45973    0.19175    0.25743    1.000
    S5       S        0.94106    0.95000    0.78102    1.000
    S6       S        0.07014    0.18146    0.83989    1.000
    N1       N        0.50210    0.02250    0.11790    1.000
    N2       N        0.88020    0.59190    0.26940    1.000
    N3       N        0.21780    0.50480    0.28994    1.000
    N4       N        0.50080    0.05200    0.42229    1.000
    N5       N        0.31340    0.09750    0.98320    1.000
    N6       N        0.98810    0.98550    0.58673    1.000
    C1       C        0.42480    0.94840    0.14240    1.000
    H1       H        0.33590    0.91730    0.12510    1.000
    C2       C        0.46640    0.91450    0.19140    1.000
    H2       H        0.40730    0.86100    0.20710    1.000
    C3       C        0.59560    0.95910    0.21770    1.000
    C4       C        0.67780    0.03700    0.19240    1.000
    H3       H        0.76710    0.06930    0.20880    1.000
    C5       C        0.62780    0.06650    0.14340    1.000
    H4       H        0.68410    0.12020    0.12690    1.000
    C6       C        0.52610    0.82120    0.29580    1.000
    H5       H        0.54350    0.81010    0.33690    1.000
    H6       H        0.44230    0.84420    0.29530    1.000
    C7       C        0.64910    0.66070    0.25620    1.000
    C8       C        0.73160    0.69410    0.30970    1.000
    H7       H        0.71010    0.74140    0.34250    1.000
    C9       C        0.84430    0.65780    0.31440    1.000
    H8       H        0.89900    0.68050    0.35120    1.000
    C10      C        0.80060    0.55850    0.21880    1.000
    H9       H        0.82440    0.51090    0.18680    1.000
    C11      C        0.68480    0.59010    0.21060    1.000
    H10      H        0.63020    0.56360    0.17390    1.000
    C12      C        0.29000    0.53500    0.34330    1.000
    H11      H        0.25800    0.57650    0.37560    1.000
    C13      C        0.40730    0.50880    0.35330    1.000
    H12      H        0.45550    0.53300    0.39170    1.000
    C14      C        0.45570    0.44690    0.30740    1.000
    C15      C        0.38270    0.41760    0.25190    1.000
    H13      H        0.41300    0.37680    0.21860    1.000
    C16      C        0.26690    0.44800    0.24540    1.000
    H14      H        0.21870    0.42740    0.20690    1.000
    C17      C        0.60110    0.30390    0.26240    1.000
    H15      H        0.60210    0.32900    0.22400    1.000
    H16      H        0.68410    0.28080    0.26700    1.000
    C18      C        0.48620    0.14190    0.32136    1.000
    C19      C        0.60130    0.17300    0.36060    1.000
    H17      H        0.67660    0.22570    0.35370    1.000
    C20      C        0.60420    0.12610    0.40950    1.000
    H18      H        0.68350    0.14740    0.43570    1.000
    C21      C        0.39120    0.02010    0.38323    1.000
    H19      H        0.31820    0.96610    0.39070    1.000
    C22      C        0.38060    0.06210    0.33326    1.000
    H20      H        0.30170    0.03710    0.30680    1.000
    C23      C        0.18730    0.04150    0.96800    1.000
    H21      H        0.15160    0.98510    0.98760    1.000
    C24      C        0.10630    0.06190    0.92490    1.000
    H22      H        0.01650    0.02070    0.91550    1.000
    C25      C        0.15850    0.14430    0.89520    1.000
    C26      C        0.28980    0.20300    0.91110    1.000
    H23      H        0.32860    0.25960    0.89210    1.000
    C27      C        0.36280    0.17750    0.95530    1.000
    H24      H        0.45210    0.21840    0.96650    1.000
    C28      C        0.92080    0.07410    0.82200    1.000
    H25      H        0.85550    0.09640    0.79820    1.000
    H26      H        0.88110    0.06220    0.86020    1.000
    C29      C        0.96700    0.97190    0.70780    1.000
    C30      C        0.97180    0.06540    0.68910    1.000
    H27      H        0.96790    0.12650    0.71750    1.000
    C31      C        0.98230    0.06880    0.62890    1.000
    H28      H        0.98550    0.13350    0.61680    1.000
    C32      C        0.98790    0.89680    0.60580    1.000
    H29      H        0.99540    0.83750    0.57680    1.000
    C33      C        0.97770    0.88640    0.66450    1.000
    H30      H        0.97800    0.82140    0.67550    1.000
    C34      C        0.71660    0.89960    0.47540    1.000
    H31      H        0.64560    0.83810    0.46250    1.000
    C35      C        0.70920    0.16450    0.99870    1.000
    H32      H        0.71320    0.23080    0.02370    1.000
    O1       O        0.68510    0.98410    0.49057    1.000
    O2       O        0.83210    0.88790    0.47559    1.000
    O3       O        0.60810    0.08990    0.00134    1.000
    O4       O        0.80300    0.15920    0.96656    1.000
    Cu3      Cu       0.95059    0.45215    0.72045    1.000
    Cu4      Cu       0.58175    0.93887    0.95187    1.000
    S7       S        0.33866    0.07394    0.71881    1.000
    S8       S        0.49955    0.30294    0.75612    1.000
    S9       S        0.39593    0.58689    0.67639    1.000
    S10      S        0.54027    0.80825    0.74257    1.000
    S11      S        0.05894    0.05000    0.21898    1.000
    S12      S        0.92986    0.81854    0.16011    1.000
    N7       N        0.49790    0.97750    0.88210    1.000
    N8       N        0.11980    0.40810    0.73060    1.000
    N9       N        0.78220    0.49520    0.71006    1.000
    N10      N        0.49920    0.94800    0.57771    1.000
    N11      N        0.68660    0.90250    0.01680    1.000
    N12      N        0.01190    0.01450    0.41327    1.000
    C36      C        0.57520    0.05160    0.85760    1.000
    H33      H        0.66410    0.08270    0.87490    1.000
    C37      C        0.53360    0.08550    0.80860    1.000
    H34      H        0.59270    0.13900    0.79290    1.000
    C38      C        0.40440    0.04090    0.78230    1.000
    C39      C        0.32220    0.96300    0.80760    1.000
    H35      H        0.23290    0.93070    0.79120    1.000
    C40      C        0.37220    0.93350    0.85660    1.000
    H36      H        0.31590    0.87980    0.87310    1.000
    C41      C        0.47390    0.17880    0.70420    1.000
    H37      H        0.45650    0.18990    0.66310    1.000
    H38      H        0.55770    0.15580    0.70470    1.000
    C42      C        0.35090    0.33930    0.74380    1.000
    C43      C        0.26840    0.30590    0.69030    1.000
    H39      H        0.28990    0.25860    0.65750    1.000
    C44      C        0.15570    0.34220    0.68560    1.000
    H40      H        0.10100    0.31950    0.64880    1.000
    C45      C        0.19940    0.44150    0.78120    1.000
    H41      H        0.17560    0.48910    0.81320    1.000
    C46      C        0.31520    0.40990    0.78940    1.000
    H42      H        0.36980    0.43640    0.82610    1.000
    C47      C        0.71000    0.46500    0.65670    1.000
    H43      H        0.74200    0.42350    0.62440    1.000
    C48      C        0.59270    0.49120    0.64670    1.000
    H44      H        0.54450    0.46700    0.60830    1.000
    C49      C        0.54430    0.55310    0.69260    1.000
    C50      C        0.61730    0.58240    0.74810    1.000
    H45      H        0.58700    0.62320    0.78140    1.000
    C51      C        0.73310    0.55200    0.75460    1.000
    H46      H        0.78130    0.57260    0.79310    1.000
    C52      C        0.39890    0.69610    0.73760    1.000
    H47      H        0.39790    0.67100    0.77600    1.000
    H48      H        0.31590    0.71920    0.73300    1.000
    C53      C        0.51380    0.85810    0.67864    1.000
    C54      C        0.39870    0.82700    0.63940    1.000
    H49      H        0.32340    0.77430    0.64630    1.000
    C55      C        0.39580    0.87390    0.59050    1.000
    H50      H        0.31650    0.85260    0.56430    1.000
    C56      C        0.60880    0.97990    0.61677    1.000
    H51      H        0.68180    0.03390    0.60930    1.000
    C57      C        0.61940    0.93790    0.66674    1.000
    H52      H        0.69830    0.96290    0.69320    1.000
    C58      C        0.81270    0.95850    0.03200    1.000
    H53      H        0.84840    0.01490    0.01240    1.000
    C59      C        0.89370    0.93810    0.07510    1.000
    H54      H        0.98350    0.97930    0.08450    1.000
    C60      C        0.84150    0.85570    0.10480    1.000
    C61      C        0.71020    0.79700    0.08890    1.000
    H55      H        0.67140    0.74040    0.10790    1.000
    C62      C        0.63720    0.82250    0.04470    1.000
    H56      H        0.54790    0.78160    0.03350    1.000
    C63      C        0.07920    0.92590    0.17800    1.000
    H57      H        0.14450    0.90360    0.20180    1.000
    H58      H        0.11890    0.93780    0.13980    1.000
    C64      C        0.03300    0.02810    0.29220    1.000
    C65      C        0.02820    0.93460    0.31090    1.000
    H59      H        0.03210    0.87350    0.28250    1.000
    C66      C        0.01770    0.93120    0.37110    1.000
    H60      H        0.01450    0.86650    0.38320    1.000
    C67      C        0.01210    0.10320    0.39420    1.000
    H61      H        0.00460    0.16250    0.42320    1.000
    C68      C        0.02230    0.11360    0.33550    1.000
    H62      H        0.02200    0.17860    0.32450    1.000
    C69      C        0.28340    0.10040    0.52460    1.000
    H63      H        0.35440    0.16190    0.53750    1.000
    C70      C        0.29080    0.83550    0.00130    1.000
    H64      H        0.28680    0.76920    0.97630    1.000
    O5       O        0.31490    0.01590    0.50943    1.000
    O6       O        0.16790    0.11210    0.52441    1.000
    O7       O        0.39190    0.91010    0.99866    1.000
    O8       O        0.19700    0.84080    0.03344    1.000
    Cu5      Cu       0.50000    0.00000    0.50000    1.000
    Cu6      Cu       0.00000    0.00000    0.50000    1.000
