# CIF file generated by openbabel 3.1.0, see https://openbabel.org
data_I
_chemical_name_common 'image0'
_cell_length_a 10.1045
_cell_length_b 15.4994
_cell_length_c 10.4754
_cell_angle_alpha 90
_cell_angle_beta 102.207
_cell_angle_gamma 90
_space_group_name_H-M_alt 'P 1'
_space_group_name_Hall 'P 1'
loop_
    _symmetry_equiv_pos_as_xyz
    x,y,z
loop_
    _atom_site_label
    _atom_site_type_symbol
    _atom_site_fract_x
    _atom_site_fract_y
    _atom_site_fract_z
    _atom_site_occupancy
    Dy1      Dy       0.08581    0.00260    0.31094    1.000
    O1       O        0.99460    0.13152    0.37140    1.000
    O2       O        0.90206    0.11347    0.54527    1.000
    O3       O        0.72876    0.38294    0.73745    1.000
    O4       O        0.67890    0.49292    0.60360    1.000
    O5       O        0.73520    0.45239    0.00380    1.000
    O6       O        0.64040    0.46371    0.17850    1.000
    N1       N        0.86630    0.38184    0.33030    1.000
    C1       C        0.90640    0.29866    0.34250    1.000
    H1       H        0.94570    0.27380    0.27870    1.000
    C2       C        0.89000    0.25030    0.44780    1.000
    C3       C        0.83130    0.28849    0.54310    1.000
    H2       H        0.81700    0.25630    0.61390    1.000
    C4       C        0.79460    0.37491    0.53140    1.000
    C5       C        0.81320    0.42064    0.42330    1.000
    H3       H        0.78890    0.47860    0.41460    1.000
    C6       C        0.93320    0.15660    0.45630    1.000
    C7       C        0.73040    0.41978    0.63080    1.000
    C8       C        0.87500    0.42920    0.20970    1.000
    H4       H        0.92700    0.39520    0.15990    1.000
    H5       H        0.92280    0.48300    0.23320    1.000
    C9       C        0.73611    0.44857    0.12414    1.000
    Dy2      Dy       0.41419    0.50260    0.18906    1.000
    O7       O        0.50540    0.63152    0.12860    1.000
    O8       O        0.59794    0.61347    0.95473    1.000
    O9       O        0.77124    0.88294    0.76255    1.000
    O10      O        0.82110    0.99292    0.89640    1.000
    O11      O        0.76480    0.95239    0.49620    1.000
    O12      O        0.85960    0.96371    0.32150    1.000
    N2       N        0.63370    0.88184    0.16970    1.000
    C10      C        0.59360    0.79866    0.15750    1.000
    H6       H        0.55430    0.77380    0.22130    1.000
    C11      C        0.61000    0.75030    0.05220    1.000
    C12      C        0.66870    0.78849    0.95690    1.000
    H7       H        0.68300    0.75630    0.88610    1.000
    C13      C        0.70540    0.87491    0.96860    1.000
    C14      C        0.68680    0.92064    0.07670    1.000
    H8       H        0.71110    0.97860    0.08540    1.000
    C15      C        0.56680    0.65660    0.04370    1.000
    C16      C        0.76960    0.91978    0.86920    1.000
    C17      C        0.62500    0.92920    0.29030    1.000
    H9       H        0.57300    0.89520    0.34010    1.000
    H10      H        0.57720    0.98300    0.26680    1.000
    C18      C        0.76389    0.94857    0.37586    1.000
    Dy3      Dy       0.91419    0.99740    0.68906    1.000
    O13      O        0.00540    0.86848    0.62860    1.000
    O14      O        0.09794    0.88653    0.45473    1.000
    O15      O        0.27124    0.61706    0.26255    1.000
    O16      O        0.32110    0.50708    0.39640    1.000
    O17      O        0.26480    0.54761    0.99620    1.000
    O18      O        0.35960    0.53629    0.82150    1.000
    N3       N        0.13370    0.61816    0.66970    1.000
    C19      C        0.09360    0.70134    0.65750    1.000
    H11      H        0.05430    0.72620    0.72130    1.000
    C20      C        0.11000    0.74970    0.55220    1.000
    C21      C        0.16870    0.71151    0.45690    1.000
    H12      H        0.18300    0.74370    0.38610    1.000
    C22      C        0.20540    0.62509    0.46860    1.000
    C23      C        0.18680    0.57936    0.57670    1.000
    H13      H        0.21110    0.52140    0.58540    1.000
    C24      C        0.06680    0.84340    0.54370    1.000
    C25      C        0.26960    0.58022    0.36920    1.000
    C26      C        0.12500    0.57080    0.79030    1.000
    H14      H        0.07300    0.60480    0.84010    1.000
    H15      H        0.07720    0.51700    0.76680    1.000
    C27      C        0.26389    0.55143    0.87586    1.000
    Dy4      Dy       0.58581    0.49740    0.81094    1.000
    O19      O        0.49460    0.36848    0.87140    1.000
    O20      O        0.40206    0.38653    0.04527    1.000
    O21      O        0.22876    0.11706    0.23745    1.000
    O22      O        0.17890    0.00708    0.10360    1.000
    O23      O        0.23520    0.04761    0.50380    1.000
    O24      O        0.14040    0.03629    0.67850    1.000
    N4       N        0.36630    0.11816    0.83030    1.000
    C28      C        0.40640    0.20134    0.84250    1.000
    H16      H        0.44570    0.22620    0.77870    1.000
    C29      C        0.39000    0.24970    0.94780    1.000
    C30      C        0.33130    0.21151    0.04310    1.000
    H17      H        0.31700    0.24370    0.11390    1.000
    C31      C        0.29460    0.12509    0.03140    1.000
    C32      C        0.31320    0.07936    0.92330    1.000
    H18      H        0.28890    0.02140    0.91460    1.000
    C33      C        0.43320    0.34340    0.95630    1.000
    C34      C        0.23040    0.08022    0.13080    1.000
    C35      C        0.37500    0.07080    0.70970    1.000
    H19      H        0.42700    0.10480    0.65990    1.000
    H20      H        0.42280    0.01700    0.73320    1.000
    C36      C        0.23611    0.05143    0.62414    1.000
