# CIF file generated by openbabel 3.1.0, see https://openbabel.org
data_I
_chemical_name_common 'image0'
_cell_length_a 9.296
_cell_length_b 25.562
_cell_length_c 7.811
_cell_angle_alpha 90
_cell_angle_beta 97.27
_cell_angle_gamma 90
_space_group_name_H-M_alt 'P 1'
_space_group_name_Hall 'P 1'
loop_
    _symmetry_equiv_pos_as_xyz
    x,y,z
loop_
    _atom_site_label
    _atom_site_type_symbol
    _atom_site_fract_x
    _atom_site_fract_y
    _atom_site_fract_z
    _atom_site_occupancy
    Sm1      Sm       0.51334    0.65038    0.58754    1.000
    O1       O        0.49410    0.70606    0.33320    1.000
    O2       O        0.59510    0.76562    0.17650    1.000
    O3       O        0.26320    0.65598    0.49410    1.000
    O4       O        0.14170    0.58853    0.58840    1.000
    O5       O        0.19070    0.48361    0.43680    1.000
    O6       O        0.34030    0.50842    0.24850    1.000
    O7       O        0.70720    0.62278    0.80190    1.000
    O8       O        0.61620    0.61690    0.05160    1.000
    N1       N        0.75150    0.66621    0.45310    1.000
    N2       N        0.97010    0.53327    0.27150    1.000
    C1       C        0.60030    0.72770    0.27760    1.000
    C2       C        0.74870    0.70460    0.33570    1.000
    C3       C        0.87100    0.72220    0.26890    1.000
    C4       C        0.00380    0.69900    0.32730    1.000
    C5       C        0.00850    0.65870    0.44690    1.000
    C6       C        0.87960    0.64330    0.50610    1.000
    C7       C        0.14840    0.63160    0.51540    1.000
    C8       C        0.22060    0.50760    0.30220    1.000
    C9       C        0.09590    0.53640    0.20130    1.000
    C10      C        0.10610    0.56430    0.05030    1.000
    C11      C        0.98080    0.58820    0.96910    1.000
    C12      C        0.85160    0.58460    0.04070    1.000
    C13      C        0.84990    0.55680    0.19390    1.000
    C14      C        0.71370    0.61010    0.95830    1.000
    Sm2      Sm       0.48666    0.15038    0.91246    1.000
    O9       O        0.50590    0.20606    0.16680    1.000
    O10      O        0.40490    0.26562    0.32350    1.000
    O11      O        0.73680    0.15598    0.00590    1.000
    O12      O        0.85830    0.08853    0.91160    1.000
    O13      O        0.80930    0.98361    0.06320    1.000
    O14      O        0.65970    0.00842    0.25150    1.000
    O15      O        0.29280    0.12278    0.69810    1.000
    O16      O        0.38380    0.11690    0.44840    1.000
    N3       N        0.24850    0.16621    0.04690    1.000
    N4       N        0.02990    0.03327    0.22850    1.000
    C15      C        0.39970    0.22770    0.22240    1.000
    C16      C        0.25130    0.20460    0.16430    1.000
    C17      C        0.12900    0.22220    0.23110    1.000
    C18      C        0.99620    0.19900    0.17270    1.000
    C19      C        0.99150    0.15870    0.05310    1.000
    C20      C        0.12040    0.14330    0.99390    1.000
    C21      C        0.85160    0.13160    0.98460    1.000
    C22      C        0.77940    0.00760    0.19780    1.000
    C23      C        0.90410    0.03640    0.29870    1.000
    C24      C        0.89390    0.06430    0.44970    1.000
    C25      C        0.01920    0.08820    0.53090    1.000
    C26      C        0.14840    0.08460    0.45930    1.000
    C27      C        0.15010    0.05680    0.30610    1.000
    C28      C        0.28630    0.11010    0.54170    1.000
    Sm3      Sm       0.48666    0.34962    0.41246    1.000
    O17      O        0.50590    0.29394    0.66680    1.000
    O18      O        0.40490    0.23438    0.82350    1.000
    O19      O        0.73680    0.34402    0.50590    1.000
    O20      O        0.85830    0.41147    0.41160    1.000
    O21      O        0.80930    0.51639    0.56320    1.000
    O22      O        0.65970    0.49158    0.75150    1.000
    O23      O        0.29280    0.37722    0.19810    1.000
    O24      O        0.38380    0.38310    0.94840    1.000
    N5       N        0.24850    0.33379    0.54690    1.000
    N6       N        0.02990    0.46673    0.72850    1.000
    C29      C        0.39970    0.27230    0.72240    1.000
    C30      C        0.25130    0.29540    0.66430    1.000
    C31      C        0.12900    0.27780    0.73110    1.000
    C32      C        0.99620    0.30100    0.67270    1.000
    C33      C        0.99150    0.34130    0.55310    1.000
    C34      C        0.12040    0.35670    0.49390    1.000
    C35      C        0.85160    0.36840    0.48460    1.000
    C36      C        0.77940    0.49240    0.69780    1.000
    C37      C        0.90410    0.46360    0.79870    1.000
    C38      C        0.89390    0.43570    0.94970    1.000
    C39      C        0.01920    0.41180    0.03090    1.000
    C40      C        0.14840    0.41540    0.95930    1.000
    C41      C        0.15010    0.44320    0.80610    1.000
    C42      C        0.28630    0.38990    0.04170    1.000
    Sm4      Sm       0.51334    0.84962    0.08754    1.000
    O25      O        0.49410    0.79394    0.83320    1.000
    O26      O        0.59510    0.73438    0.67650    1.000
    O27      O        0.26320    0.84402    0.99410    1.000
    O28      O        0.14170    0.91147    0.08840    1.000
    O29      O        0.19070    0.01639    0.93680    1.000
    O30      O        0.34030    0.99158    0.74850    1.000
    O31      O        0.70720    0.87722    0.30190    1.000
    O32      O        0.61620    0.88310    0.55160    1.000
    N7       N        0.75150    0.83379    0.95310    1.000
    N8       N        0.97010    0.96673    0.77150    1.000
    C43      C        0.60030    0.77230    0.77760    1.000
    C44      C        0.74870    0.79540    0.83570    1.000
    C45      C        0.87100    0.77780    0.76890    1.000
    C46      C        0.00380    0.80100    0.82730    1.000
    C47      C        0.00850    0.84130    0.94690    1.000
    C48      C        0.87960    0.85670    0.00610    1.000
    C49      C        0.14840    0.86840    0.01540    1.000
    C50      C        0.22060    0.99240    0.80220    1.000
    C51      C        0.09590    0.96360    0.70130    1.000
    C52      C        0.10610    0.93570    0.55030    1.000
    C53      C        0.98080    0.91180    0.46910    1.000
    C54      C        0.85160    0.91540    0.54070    1.000
    C55      C        0.84990    0.94320    0.69390    1.000
    C56      C        0.71370    0.88990    0.45830    1.000
    Cu1      Cu       0.00000    0.50000    0.50000    1.000
    Cu2      Cu       0.00000    0.00000    0.00000    1.000
