# CIF file generated by openbabel 3.1.0, see https://openbabel.org
data_I
_chemical_name_common 'image0'
_cell_length_a 17.8023
_cell_length_b 16.1037
_cell_length_c 19.1232
_cell_angle_alpha 90
_cell_angle_beta 90
_cell_angle_gamma 90
_space_group_name_H-M_alt 'P 1'
_space_group_name_Hall 'P 1'
loop_
    _symmetry_equiv_pos_as_xyz
    x,y,z
loop_
    _atom_site_label
    _atom_site_type_symbol
    _atom_site_fract_x
    _atom_site_fract_y
    _atom_site_fract_z
    _atom_site_occupancy
    Fe1      Fe       0.23357    0.66496    0.54241    1.000
    Fe2      Fe       0.45778    0.83565    0.55121    1.000
    Fe3      Fe       0.94604    0.75601    0.70677    1.000
    P1       P        0.11640    0.75924    0.65008    1.000
    P2       P        0.30446    0.95896    0.54181    1.000
    P3       P        0.34167    0.72765    0.65893    1.000
    P4       P        0.35258    0.73392    0.43509    1.000
    P5       P        0.01199    0.90711    0.79496    1.000
    P6       P        0.12635    0.75142    0.92706    1.000
    B1       B        0.23960    0.83790    0.61220    1.000
    B2       B        0.23890    0.83530    0.47730    1.000
    B3       B        0.09540    0.76610    0.78617    1.000
    O1       O        0.03318    0.77802    0.64574    1.000
    O2       O        0.14140    0.68967    0.60198    1.000
    O3       O        0.13683    0.73407    0.72622    1.000
    O4       O        0.15994    0.84014    0.63144    1.000
    O5       O        0.29651    0.05081    0.54298    1.000
    O6       O        0.38510    0.93107    0.53585    1.000
    O7       O        0.26561    0.92386    0.60844    1.000
    O8       O        0.25686    0.92427    0.47996    1.000
    O9       O        0.30252    0.65477    0.62375    1.000
    O10      O        0.40785    0.75882    0.61566    1.000
    O11      O        0.36847    0.70391    0.73193    1.000
    O12      O        0.28279    0.79834    0.66844    1.000
    O13      O        0.41838    0.77753    0.46925    1.000
    O14      O        0.37464    0.70333    0.36220    1.000
    O15      O        0.32411    0.66060    0.47894    1.000
    O16      O        0.28675    0.79685    0.42349    1.000
    O17      O        0.02566    0.99491    0.77116    1.000
    O18      O        0.99789    0.90334    0.87363    1.000
    O19      O        0.94783    0.86606    0.75319    1.000
    O20      O        0.08525    0.85617    0.77986    1.000
    O21      O        0.16904    0.82396    0.95757    1.000
    O22      O        0.04305    0.75297    0.94260    1.000
    O23      O        0.14042    0.74633    0.84709    1.000
    O24      O        0.15991    0.66893    0.95573    1.000
    O25      O        0.25146    0.79419    0.54494    1.000
    O26      O        0.02215    0.72244    0.78713    1.000
    H1       H        0.00200    0.72600    0.81800    1.000
    Fe4      Fe       0.26643    0.33504    0.04241    1.000
    Fe5      Fe       0.04222    0.16435    0.05121    1.000
    Fe6      Fe       0.55396    0.24399    0.20677    1.000
    P7       P        0.38360    0.24076    0.15008    1.000
    P8       P        0.19554    0.04104    0.04181    1.000
    P9       P        0.15833    0.27235    0.15893    1.000
    P10      P        0.14742    0.26608    0.93509    1.000
    P11      P        0.48801    0.09289    0.29496    1.000
    P12      P        0.37365    0.24858    0.42706    1.000
    B4       B        0.26040    0.16210    0.11220    1.000
    B5       B        0.26110    0.16470    0.97730    1.000
    B6       B        0.40460    0.23390    0.28617    1.000
    O27      O        0.46682    0.22198    0.14574    1.000
    O28      O        0.35860    0.31033    0.10198    1.000
    O29      O        0.36317    0.26593    0.22622    1.000
    O30      O        0.34006    0.15986    0.13144    1.000
    O31      O        0.20349    0.94919    0.04298    1.000
    O32      O        0.11490    0.06893    0.03585    1.000
    O33      O        0.23439    0.07614    0.10844    1.000
    O34      O        0.24314    0.07573    0.97996    1.000
    O35      O        0.19748    0.34523    0.12375    1.000
    O36      O        0.09215    0.24118    0.11566    1.000
    O37      O        0.13153    0.29609    0.23193    1.000
    O38      O        0.21721    0.20166    0.16844    1.000
    O39      O        0.08162    0.22247    0.96925    1.000
    O40      O        0.12536    0.29667    0.86220    1.000
    O41      O        0.17589    0.33940    0.97894    1.000
    O42      O        0.21325    0.20315    0.92349    1.000
    O43      O        0.47434    0.00509    0.27116    1.000
    O44      O        0.50211    0.09666    0.37363    1.000
    O45      O        0.55217    0.13394    0.25319    1.000
    O46      O        0.41475    0.14383    0.27986    1.000
    O47      O        0.33096    0.17604    0.45757    1.000
    O48      O        0.45695    0.24703    0.44260    1.000
    O49      O        0.35958    0.25367    0.34709    1.000
    O50      O        0.34009    0.33107    0.45573    1.000
    O51      O        0.24854    0.20581    0.04494    1.000
    O52      O        0.47785    0.27756    0.28713    1.000
    H2       H        0.49800    0.27400    0.31800    1.000
    Fe7      Fe       0.76643    0.16496    0.95759    1.000
    Fe8      Fe       0.54222    0.33565    0.94879    1.000
    Fe9      Fe       0.05396    0.25601    0.79323    1.000
    P13      P        0.88360    0.25924    0.84992    1.000
    P14      P        0.69554    0.45896    0.95819    1.000
    P15      P        0.65833    0.22765    0.84107    1.000
    P16      P        0.64742    0.23392    0.06491    1.000
    P17      P        0.98801    0.40711    0.70504    1.000
    P18      P        0.87365    0.25142    0.57294    1.000
    B7       B        0.76040    0.33790    0.88780    1.000
    B8       B        0.76110    0.33530    0.02270    1.000
    B9       B        0.90460    0.26610    0.71383    1.000
    O53      O        0.96682    0.27802    0.85426    1.000
    O54      O        0.85860    0.18967    0.89802    1.000
    O55      O        0.86317    0.23407    0.77378    1.000
    O56      O        0.84006    0.34014    0.86856    1.000
    O57      O        0.70349    0.55081    0.95702    1.000
    O58      O        0.61490    0.43107    0.96415    1.000
    O59      O        0.73439    0.42386    0.89156    1.000
    O60      O        0.74314    0.42427    0.02004    1.000
    O61      O        0.69748    0.15477    0.87625    1.000
    O62      O        0.59215    0.25882    0.88434    1.000
    O63      O        0.63153    0.20391    0.76807    1.000
    O64      O        0.71721    0.29834    0.83156    1.000
    O65      O        0.58162    0.27753    0.03075    1.000
    O66      O        0.62536    0.20333    0.13780    1.000
    O67      O        0.67589    0.16060    0.02106    1.000
    O68      O        0.71325    0.29685    0.07651    1.000
    O69      O        0.97434    0.49491    0.72884    1.000
    O70      O        0.00211    0.40334    0.62637    1.000
    O71      O        0.05217    0.36606    0.74681    1.000
    O72      O        0.91475    0.35617    0.72014    1.000
    O73      O        0.83096    0.32396    0.54243    1.000
    O74      O        0.95695    0.25297    0.55740    1.000
    O75      O        0.85958    0.24633    0.65291    1.000
    O76      O        0.84009    0.16893    0.54427    1.000
    O77      O        0.74854    0.29419    0.95506    1.000
    O78      O        0.97785    0.22244    0.71287    1.000
    H3       H        0.99800    0.22600    0.68200    1.000
    Fe10     Fe       0.73357    0.83504    0.45759    1.000
    Fe11     Fe       0.95778    0.66435    0.44879    1.000
    Fe12     Fe       0.44604    0.74399    0.29323    1.000
    P19      P        0.61640    0.74076    0.34992    1.000
    P20      P        0.80446    0.54104    0.45819    1.000
    P21      P        0.84167    0.77235    0.34107    1.000
    P22      P        0.85258    0.76608    0.56491    1.000
    P23      P        0.51199    0.59289    0.20504    1.000
    P24      P        0.62635    0.74858    0.07294    1.000
    B10      B        0.73960    0.66210    0.38780    1.000
    B11      B        0.73890    0.66470    0.52270    1.000
    B12      B        0.59540    0.73390    0.21383    1.000
    O79      O        0.53318    0.72198    0.35426    1.000
    O80      O        0.64140    0.81033    0.39802    1.000
    O81      O        0.63683    0.76593    0.27378    1.000
    O82      O        0.65994    0.65986    0.36856    1.000
    O83      O        0.79651    0.44919    0.45702    1.000
    O84      O        0.88510    0.56893    0.46415    1.000
    O85      O        0.76561    0.57614    0.39156    1.000
    O86      O        0.75686    0.57573    0.52004    1.000
    O87      O        0.80252    0.84523    0.37625    1.000
    O88      O        0.90785    0.74118    0.38434    1.000
    O89      O        0.86847    0.79609    0.26807    1.000
    O90      O        0.78279    0.70166    0.33156    1.000
    O91      O        0.91838    0.72247    0.53075    1.000
    O92      O        0.87464    0.79667    0.63780    1.000
    O93      O        0.82411    0.83940    0.52106    1.000
    O94      O        0.78675    0.70315    0.57651    1.000
    O95      O        0.52566    0.50509    0.22884    1.000
    O96      O        0.49789    0.59666    0.12637    1.000
    O97      O        0.44783    0.63394    0.24681    1.000
    O98      O        0.58525    0.64383    0.22014    1.000
    O99      O        0.66904    0.67604    0.04243    1.000
    O100     O        0.54305    0.74703    0.05740    1.000
    O101     O        0.64042    0.75367    0.15291    1.000
    O102     O        0.65991    0.83107    0.04427    1.000
    O103     O        0.75146    0.70581    0.45506    1.000
    O104     O        0.52215    0.77756    0.21287    1.000
    H4       H        0.50200    0.77400    0.18200    1.000
    Fe13     Fe       0.76643    0.33504    0.45759    1.000
    Fe14     Fe       0.54222    0.16435    0.44879    1.000
    Fe15     Fe       0.05396    0.24399    0.29323    1.000
    P25      P        0.88360    0.24076    0.34992    1.000
    P26      P        0.69554    0.04104    0.45819    1.000
    P27      P        0.65833    0.27235    0.34107    1.000
    P28      P        0.64742    0.26608    0.56491    1.000
    P29      P        0.98801    0.09289    0.20504    1.000
    P30      P        0.87365    0.24858    0.07294    1.000
    B13      B        0.76040    0.16210    0.38780    1.000
    B14      B        0.76110    0.16470    0.52270    1.000
    B15      B        0.90460    0.23390    0.21383    1.000
    O105     O        0.96682    0.22198    0.35426    1.000
    O106     O        0.85860    0.31033    0.39802    1.000
    O107     O        0.86317    0.26593    0.27378    1.000
    O108     O        0.84006    0.15986    0.36856    1.000
    O109     O        0.70349    0.94919    0.45702    1.000
    O110     O        0.61490    0.06893    0.46415    1.000
    O111     O        0.73439    0.07614    0.39156    1.000
    O112     O        0.74314    0.07573    0.52004    1.000
    O113     O        0.69748    0.34523    0.37625    1.000
    O114     O        0.59215    0.24118    0.38434    1.000
    O115     O        0.63153    0.29609    0.26807    1.000
    O116     O        0.71721    0.20166    0.33156    1.000
    O117     O        0.58162    0.22247    0.53075    1.000
    O118     O        0.62536    0.29667    0.63780    1.000
    O119     O        0.67589    0.33940    0.52106    1.000
    O120     O        0.71325    0.20315    0.57651    1.000
    O121     O        0.97434    0.00509    0.22884    1.000
    O122     O        0.00211    0.09666    0.12637    1.000
    O123     O        0.05217    0.13394    0.24681    1.000
    O124     O        0.91475    0.14383    0.22014    1.000
    O125     O        0.83096    0.17604    0.04243    1.000
    O126     O        0.95695    0.24703    0.05740    1.000
    O127     O        0.85958    0.25367    0.15291    1.000
    O128     O        0.84009    0.33107    0.04427    1.000
    O129     O        0.74854    0.20581    0.45506    1.000
    O130     O        0.97785    0.27756    0.21287    1.000
    H5       H        0.99800    0.27400    0.18200    1.000
    Fe16     Fe       0.73357    0.66496    0.95759    1.000
    Fe17     Fe       0.95778    0.83565    0.94879    1.000
    Fe18     Fe       0.44604    0.75601    0.79323    1.000
    P31      P        0.61640    0.75924    0.84992    1.000
    P32      P        0.80446    0.95896    0.95819    1.000
    P33      P        0.84167    0.72765    0.84107    1.000
    P34      P        0.85258    0.73392    0.06491    1.000
    P35      P        0.51199    0.90711    0.70504    1.000
    P36      P        0.62635    0.75142    0.57294    1.000
    B16      B        0.73960    0.83790    0.88780    1.000
    B17      B        0.73890    0.83530    0.02270    1.000
    B18      B        0.59540    0.76610    0.71383    1.000
    O131     O        0.53318    0.77802    0.85426    1.000
    O132     O        0.64140    0.68967    0.89802    1.000
    O133     O        0.63683    0.73407    0.77378    1.000
    O134     O        0.65994    0.84014    0.86856    1.000
    O135     O        0.79651    0.05081    0.95702    1.000
    O136     O        0.88510    0.93107    0.96415    1.000
    O137     O        0.76561    0.92386    0.89156    1.000
    O138     O        0.75686    0.92427    0.02004    1.000
    O139     O        0.80252    0.65477    0.87625    1.000
    O140     O        0.90785    0.75882    0.88434    1.000
    O141     O        0.86847    0.70391    0.76807    1.000
    O142     O        0.78279    0.79834    0.83156    1.000
    O143     O        0.91838    0.77753    0.03075    1.000
    O144     O        0.87464    0.70333    0.13780    1.000
    O145     O        0.82411    0.66060    0.02106    1.000
    O146     O        0.78675    0.79685    0.07651    1.000
    O147     O        0.52566    0.99491    0.72884    1.000
    O148     O        0.49789    0.90334    0.62637    1.000
    O149     O        0.44783    0.86606    0.74681    1.000
    O150     O        0.58525    0.85617    0.72014    1.000
    O151     O        0.66904    0.82396    0.54243    1.000
    O152     O        0.54305    0.75297    0.55740    1.000
    O153     O        0.64042    0.74633    0.65291    1.000
    O154     O        0.65991    0.66893    0.54427    1.000
    O155     O        0.75146    0.79419    0.95506    1.000
    O156     O        0.52215    0.72244    0.71287    1.000
    H6       H        0.50200    0.72600    0.68200    1.000
    Fe19     Fe       0.23357    0.83504    0.04241    1.000
    Fe20     Fe       0.45778    0.66435    0.05121    1.000
    Fe21     Fe       0.94604    0.74399    0.20677    1.000
    P37      P        0.11640    0.74076    0.15008    1.000
    P38      P        0.30446    0.54104    0.04181    1.000
    P39      P        0.34167    0.77235    0.15893    1.000
    P40      P        0.35258    0.76608    0.93509    1.000
    P41      P        0.01199    0.59289    0.29496    1.000
    P42      P        0.12635    0.74858    0.42706    1.000
    B19      B        0.23960    0.66210    0.11220    1.000
    B20      B        0.23890    0.66470    0.97730    1.000
    B21      B        0.09540    0.73390    0.28617    1.000
    O157     O        0.03318    0.72198    0.14574    1.000
    O158     O        0.14140    0.81033    0.10198    1.000
    O159     O        0.13683    0.76593    0.22622    1.000
    O160     O        0.15994    0.65986    0.13144    1.000
    O161     O        0.29651    0.44919    0.04298    1.000
    O162     O        0.38510    0.56893    0.03585    1.000
    O163     O        0.26561    0.57614    0.10844    1.000
    O164     O        0.25686    0.57573    0.97996    1.000
    O165     O        0.30252    0.84523    0.12375    1.000
    O166     O        0.40785    0.74118    0.11566    1.000
    O167     O        0.36847    0.79609    0.23193    1.000
    O168     O        0.28279    0.70166    0.16844    1.000
    O169     O        0.41838    0.72247    0.96925    1.000
    O170     O        0.37464    0.79667    0.86220    1.000
    O171     O        0.32411    0.83940    0.97894    1.000
    O172     O        0.28675    0.70315    0.92349    1.000
    O173     O        0.02566    0.50509    0.27116    1.000
    O174     O        0.99789    0.59666    0.37363    1.000
    O175     O        0.94783    0.63394    0.25319    1.000
    O176     O        0.08525    0.64383    0.27986    1.000
    O177     O        0.16904    0.67604    0.45757    1.000
    O178     O        0.04305    0.74703    0.44260    1.000
    O179     O        0.14042    0.75367    0.34709    1.000
    O180     O        0.15991    0.83107    0.45573    1.000
    O181     O        0.25146    0.70581    0.04494    1.000
    O182     O        0.02215    0.77756    0.28713    1.000
    H7       H        0.00200    0.77400    0.31800    1.000
    Fe22     Fe       0.26643    0.16496    0.54241    1.000
    Fe23     Fe       0.04222    0.33565    0.55121    1.000
    Fe24     Fe       0.55396    0.25601    0.70677    1.000
    P43      P        0.38360    0.25924    0.65008    1.000
    P44      P        0.19554    0.45896    0.54181    1.000
    P45      P        0.15833    0.22765    0.65893    1.000
    P46      P        0.14742    0.23392    0.43509    1.000
    P47      P        0.48801    0.40711    0.79496    1.000
    P48      P        0.37365    0.25142    0.92706    1.000
    B22      B        0.26040    0.33790    0.61220    1.000
    B23      B        0.26110    0.33530    0.47730    1.000
    B24      B        0.40460    0.26610    0.78617    1.000
    O183     O        0.46682    0.27802    0.64574    1.000
    O184     O        0.35860    0.18967    0.60198    1.000
    O185     O        0.36317    0.23407    0.72622    1.000
    O186     O        0.34006    0.34014    0.63144    1.000
    O187     O        0.20349    0.55081    0.54298    1.000
    O188     O        0.11490    0.43107    0.53585    1.000
    O189     O        0.23439    0.42386    0.60844    1.000
    O190     O        0.24314    0.42427    0.47996    1.000
    O191     O        0.19748    0.15477    0.62375    1.000
    O192     O        0.09215    0.25882    0.61566    1.000
    O193     O        0.13153    0.20391    0.73193    1.000
    O194     O        0.21721    0.29834    0.66844    1.000
    O195     O        0.08162    0.27753    0.46925    1.000
    O196     O        0.12536    0.20333    0.36220    1.000
    O197     O        0.17589    0.16060    0.47894    1.000
    O198     O        0.21325    0.29685    0.42349    1.000
    O199     O        0.47434    0.49491    0.77116    1.000
    O200     O        0.50211    0.40334    0.87363    1.000
    O201     O        0.55217    0.36606    0.75319    1.000
    O202     O        0.41475    0.35617    0.77986    1.000
    O203     O        0.33096    0.32396    0.95757    1.000
    O204     O        0.45695    0.25297    0.94260    1.000
    O205     O        0.35958    0.24633    0.84709    1.000
    O206     O        0.34009    0.16893    0.95573    1.000
    O207     O        0.24854    0.29419    0.54494    1.000
    O208     O        0.47785    0.22244    0.78713    1.000
    H8       H        0.49800    0.22600    0.81800    1.000
