# CIF file generated by openbabel 3.1.0, see https://openbabel.org
data_I
_chemical_name_common 'SUNHUF_clean'
_cell_length_a 12.229
_cell_length_b 14.44
_cell_length_c 14.5152
_cell_angle_alpha 104.657
_cell_angle_beta 90
_cell_angle_gamma 90
_space_group_name_H-M_alt 'P 1'
_space_group_name_Hall 'P 1'
loop_
    _symmetry_equiv_pos_as_xyz
    x,y,z
loop_
    _atom_site_label
    _atom_site_type_symbol
    _atom_site_fract_x
    _atom_site_fract_y
    _atom_site_fract_z
    _atom_site_occupancy
    Nd1      Nd       0.05608    0.92649    0.09311    1.000
    Nd2      Nd       0.55608    0.57351    0.40689    1.000
    Nd3      Nd       0.94392    0.07351    0.90689    1.000
    Nd4      Nd       0.44392    0.42649    0.59311    1.000
    H1       H        0.73260    0.70890    0.95260    1.000
    H2       H        0.63300    0.61830    0.82700    1.000
    H3       H        0.77940    0.74730    0.64940    1.000
    H4       H        0.87310    0.84560    0.77510    1.000
    H5       H        0.35520    0.07870    0.08630    1.000
    H6       H        0.51200    0.83460    0.96400    1.000
    H7       H        0.93890    0.85460    0.40750    1.000
    H8       H        0.08470    0.10830    0.42850    1.000
    H9       H        0.23260    0.79110    0.54740    1.000
    H10      H        0.13300    0.88170    0.67300    1.000
    H11      H        0.27940    0.75270    0.85060    1.000
    H12      H        0.37310    0.65440    0.72490    1.000
    H13      H        0.85520    0.42130    0.41370    1.000
    H14      H        0.01200    0.66540    0.53600    1.000
    H15      H        0.43890    0.64540    0.09250    1.000
    H16      H        0.58470    0.39170    0.07150    1.000
    H17      H        0.26740    0.29110    0.04740    1.000
    H18      H        0.36700    0.38170    0.17300    1.000
    H19      H        0.22060    0.25270    0.35060    1.000
    H20      H        0.12690    0.15440    0.22490    1.000
    H21      H        0.64480    0.92130    0.91370    1.000
    H22      H        0.48800    0.16540    0.03600    1.000
    H23      H        0.06110    0.14540    0.59250    1.000
    H24      H        0.91530    0.89170    0.57150    1.000
    H25      H        0.76740    0.20890    0.45260    1.000
    H26      H        0.86700    0.11830    0.32700    1.000
    H27      H        0.72060    0.24730    0.14940    1.000
    H28      H        0.62690    0.34560    0.27510    1.000
    H29      H        0.14480    0.57870    0.58630    1.000
    H30      H        0.98800    0.33460    0.46400    1.000
    H31      H        0.56110    0.35460    0.90750    1.000
    H32      H        0.41530    0.60830    0.92850    1.000
    C1       C        0.81500    0.78520    0.87710    1.000
    C2       C        0.74230    0.71750    0.89180    1.000
    C3       C        0.68350    0.66240    0.81610    1.000
    C4       C        0.69840    0.67170    0.72510    1.000
    C5       C        0.76950    0.73990    0.71070    1.000
    C6       C        0.82700    0.79820    0.78570    1.000
    C7       C        0.88110    0.84300    0.95780    1.000
    C8       C        0.63710    0.60960    0.64230    1.000
    C9       C        0.33100    0.89350    0.06650    1.000
    C10      C        0.41780    0.94700    0.03130    1.000
    C11      C        0.41380    0.04680    0.05140    1.000
    C12      C        0.50680    0.90100    0.97860    1.000
    C13      C        0.03460    0.95150    0.29680    1.000
    C14      C        0.01680    0.97610    0.40150    1.000
    C15      C        0.96410    0.91280    0.44470    1.000
    C16      C        0.05140    0.06460    0.45690    1.000
    C17      C        0.31500    0.71480    0.62290    1.000
    C18      C        0.24230    0.78250    0.60820    1.000
    C19      C        0.18350    0.83760    0.68390    1.000
    C20      C        0.19840    0.82830    0.77490    1.000
    C21      C        0.26950    0.76010    0.78930    1.000
    C22      C        0.32700    0.70180    0.71430    1.000
    C23      C        0.38110    0.65700    0.54220    1.000
    C24      C        0.13710    0.89040    0.85770    1.000
    C25      C        0.83100    0.60650    0.43350    1.000
    C26      C        0.91780    0.55300    0.46870    1.000
    C27      C        0.91380    0.45320    0.44860    1.000
    C28      C        0.00680    0.59900    0.52140    1.000
    C29      C        0.53460    0.54850    0.20320    1.000
    C30      C        0.51680    0.52390    0.09850    1.000
    C31      C        0.46410    0.58720    0.05530    1.000
    C32      C        0.55140    0.43540    0.04310    1.000
    C33      C        0.18500    0.21480    0.12290    1.000
    C34      C        0.25770    0.28250    0.10820    1.000
    C35      C        0.31650    0.33760    0.18390    1.000
    C36      C        0.30160    0.32830    0.27490    1.000
    C37      C        0.23050    0.26010    0.28930    1.000
    C38      C        0.17300    0.20180    0.21430    1.000
    C39      C        0.11890    0.15700    0.04220    1.000
    C40      C        0.36290    0.39040    0.35770    1.000
    C41      C        0.66900    0.10650    0.93350    1.000
    C42      C        0.58220    0.05300    0.96870    1.000
    C43      C        0.58620    0.95320    0.94860    1.000
    C44      C        0.49320    0.09900    0.02140    1.000
    C45      C        0.96540    0.04850    0.70320    1.000
    C46      C        0.98320    0.02390    0.59850    1.000
    C47      C        0.03590    0.08720    0.55530    1.000
    C48      C        0.94860    0.93540    0.54310    1.000
    C49      C        0.68500    0.28520    0.37710    1.000
    C50      C        0.75770    0.21750    0.39180    1.000
    C51      C        0.81650    0.16240    0.31610    1.000
    C52      C        0.80160    0.17170    0.22510    1.000
    C53      C        0.73050    0.23990    0.21070    1.000
    C54      C        0.67300    0.29820    0.28570    1.000
    C55      C        0.61890    0.34300    0.45780    1.000
    C56      C        0.86290    0.10960    0.14230    1.000
    C57      C        0.16900    0.39350    0.56650    1.000
    C58      C        0.08220    0.44700    0.53130    1.000
    C59      C        0.08620    0.54680    0.55140    1.000
    C60      C        0.99320    0.40100    0.47860    1.000
    C61      C        0.46540    0.45150    0.79680    1.000
    C62      C        0.48320    0.47610    0.90150    1.000
    C63      C        0.53590    0.41280    0.94470    1.000
    C64      C        0.44860    0.56460    0.95690    1.000
    O1       O        0.90330    0.81070    0.02680    1.000
    O2       O        0.91390    0.92560    0.95380    1.000
    O3       O        0.63550    0.63380    0.56530    1.000
    O4       O        0.59320    0.53520    0.65670    1.000
    O5       O        0.34000    0.80300    0.05020    1.000
    O6       O        0.25130    0.94060    0.11100    1.000
    O7       O        0.10070    0.00180    0.26340    1.000
    O8       O        0.98620    0.88110    0.24340    1.000
    O9       O        0.40330    0.68930    0.47320    1.000
    O10      O        0.41390    0.57440    0.54620    1.000
    O11      O        0.13550    0.86620    0.93470    1.000
    O12      O        0.09320    0.96480    0.84330    1.000
    O13      O        0.84000    0.69700    0.44980    1.000
    O14      O        0.75130    0.55940    0.38900    1.000
    O15      O        0.60070    0.49820    0.23660    1.000
    O16      O        0.48620    0.61890    0.25660    1.000
    O17      O        0.09670    0.18930    0.97320    1.000
    O18      O        0.08610    0.07440    0.04620    1.000
    O19      O        0.36450    0.36620    0.43470    1.000
    O20      O        0.40680    0.46480    0.34330    1.000
    O21      O        0.66000    0.19700    0.94980    1.000
    O22      O        0.74870    0.05940    0.88900    1.000
    O23      O        0.89930    0.99820    0.73660    1.000
    O24      O        0.01380    0.11890    0.75660    1.000
    O25      O        0.59670    0.31070    0.52680    1.000
    O26      O        0.58610    0.42560    0.45380    1.000
    O27      O        0.86450    0.13380    0.06530    1.000
    O28      O        0.90680    0.03520    0.15670    1.000
    O29      O        0.16000    0.30300    0.55020    1.000
    O30      O        0.24870    0.44060    0.61100    1.000
    O31      O        0.39930    0.50180    0.76340    1.000
    O32      O        0.51380    0.38110    0.74340    1.000
