# CIF file generated by openbabel 3.1.0, see https://openbabel.org
data_I
_chemical_name_common 'image0'
_cell_length_a 19.4561
_cell_length_b 12.511
_cell_length_c 21.4202
_cell_angle_alpha 90
_cell_angle_beta 90
_cell_angle_gamma 90
_space_group_name_H-M_alt 'P 1'
_space_group_name_Hall 'P 1'
loop_
    _symmetry_equiv_pos_as_xyz
    x,y,z
loop_
    _atom_site_label
    _atom_site_type_symbol
    _atom_site_fract_x
    _atom_site_fract_y
    _atom_site_fract_z
    _atom_site_occupancy
    Cu1      Cu       0.23873    0.33517    0.26001    1.000
    Cu2      Cu       0.43934    0.17062    0.38824    1.000
    C1       C        0.41939    0.24901    0.16899    1.000
    C2       C        0.47938    0.25018    0.20519    1.000
    C3       C        0.54367    0.25424    0.17639    1.000
    C4       C        0.54840    0.25814    0.11115    1.000
    C5       C        0.48868    0.25701    0.07488    1.000
    C6       C        0.42403    0.25140    0.10377    1.000
    C7       C        0.34900    0.24510    0.19954    1.000
    C8       C        0.47582    0.24484    0.27561    1.000
    C9       C        0.60978    0.25512    0.21391    1.000
    C10      C        0.61925    0.26035    0.08160    1.000
    C11      C        0.49395    0.26088    0.00457    1.000
    C12      C        0.35985    0.23994    0.06440    1.000
    O1       O        0.31256    0.16490    0.19218    1.000
    O2       O        0.33302    0.32963    0.23021    1.000
    O3       O        0.43257    0.17749    0.29747    1.000
    O4       O        0.51442    0.30073    0.30761    1.000
    O5       O        0.62741    0.17709    0.24546    1.000
    O6       O        0.64444    0.34134    0.20812    1.000
    O7       O        0.65717    0.18022    0.09399    1.000
    O8       O        0.63667    0.33959    0.04997    1.000
    O9       O        0.53417    0.20122    0.97696    1.000
    O10      O        0.45442    0.33025    0.97829    1.000
    O11      O        0.36078    0.16475    0.02441    1.000
    O12      O        0.31039    0.30153    0.07456    1.000
    O13      O        0.20642    0.38505    0.17669    1.000
    H1       H        0.19650    0.34100    0.15210    1.000
    H2       H        0.23650    0.41600    0.16280    1.000
    O14      O        0.13338    0.23938    0.11239    1.000
    H3       H        0.11500    0.22300    0.14320    1.000
    H4       H        0.10440    0.25400    0.08920    1.000
    O15      O        0.24926    0.92073    0.98381    1.000
    H5       H        0.23730    0.87770    0.00820    1.000
    H6       H        0.27800    0.89000    0.96460    1.000
    O16      O        0.20000    0.03410    0.15654    1.000
    H7       H        0.17000    0.01600    0.18000    1.000
    H8       H        0.21200    0.09000    0.17200    1.000
    O17      O        0.09302    0.01354    0.03367    1.000
    H9       H        0.09300    0.05560    0.00600    1.000
    H10      H        0.08150    0.96000    0.01700    1.000
    K1       K        0.22480    0.11322    0.04310    1.000
    K2       K        0.58295    0.49514    0.28884    1.000
    O18      O        0.18630    0.98370    0.13280    1.000
    K3       K        0.22960    0.10040    0.05990    1.000
    Cu3      Cu       0.26127    0.66483    0.76001    1.000
    Cu4      Cu       0.06066    0.82938    0.88824    1.000
    C13      C        0.08061    0.75099    0.66899    1.000
    C14      C        0.02062    0.74982    0.70519    1.000
    C15      C        0.95633    0.74576    0.67639    1.000
    C16      C        0.95160    0.74186    0.61115    1.000
    C17      C        0.01132    0.74299    0.57488    1.000
    C18      C        0.07597    0.74860    0.60377    1.000
    C19      C        0.15100    0.75490    0.69954    1.000
    C20      C        0.02418    0.75516    0.77561    1.000
    C21      C        0.89022    0.74488    0.71391    1.000
    C22      C        0.88075    0.73965    0.58160    1.000
    C23      C        0.00605    0.73912    0.50457    1.000
    C24      C        0.14015    0.76006    0.56440    1.000
    O19      O        0.18744    0.83510    0.69218    1.000
    O20      O        0.16698    0.67037    0.73021    1.000
    O21      O        0.06743    0.82251    0.79747    1.000
    O22      O        0.98558    0.69927    0.80761    1.000
    O23      O        0.87259    0.82291    0.74546    1.000
    O24      O        0.85556    0.65866    0.70812    1.000
    O25      O        0.84283    0.81978    0.59399    1.000
    O26      O        0.86333    0.66041    0.54997    1.000
    O27      O        0.96583    0.79878    0.47696    1.000
    O28      O        0.04558    0.66975    0.47829    1.000
    O29      O        0.13922    0.83525    0.52441    1.000
    O30      O        0.18961    0.69847    0.57456    1.000
    O31      O        0.29358    0.61495    0.67669    1.000
    H11      H        0.30350    0.65900    0.65210    1.000
    H12      H        0.26350    0.58400    0.66280    1.000
    O32      O        0.36662    0.76062    0.61239    1.000
    H13      H        0.38500    0.77700    0.64320    1.000
    H14      H        0.39560    0.74600    0.58920    1.000
    O33      O        0.25074    0.07927    0.48381    1.000
    H15      H        0.26270    0.12230    0.50820    1.000
    H16      H        0.22200    0.11000    0.46460    1.000
    O34      O        0.30000    0.96590    0.65654    1.000
    H17      H        0.33000    0.98400    0.68000    1.000
    H18      H        0.28800    0.91000    0.67200    1.000
    O35      O        0.40698    0.98646    0.53367    1.000
    H19      H        0.40700    0.94440    0.50600    1.000
    H20      H        0.41850    0.04000    0.51700    1.000
    K4       K        0.27520    0.88678    0.54310    1.000
    K5       K        0.91705    0.50486    0.78884    1.000
    O36      O        0.31370    0.01630    0.63280    1.000
    K6       K        0.27040    0.89960    0.55990    1.000
    Cu5      Cu       0.76127    0.83517    0.23999    1.000
    Cu6      Cu       0.56066    0.67062    0.11176    1.000
    C25      C        0.58061    0.74901    0.33101    1.000
    C26      C        0.52062    0.75018    0.29481    1.000
    C27      C        0.45633    0.75424    0.32361    1.000
    C28      C        0.45160    0.75814    0.38885    1.000
    C29      C        0.51132    0.75701    0.42512    1.000
    C30      C        0.57597    0.75140    0.39623    1.000
    C31      C        0.65100    0.74510    0.30046    1.000
    C32      C        0.52418    0.74484    0.22439    1.000
    C33      C        0.39022    0.75512    0.28609    1.000
    C34      C        0.38075    0.76035    0.41840    1.000
    C35      C        0.50605    0.76088    0.49543    1.000
    C36      C        0.64015    0.73994    0.43560    1.000
    O37      O        0.68744    0.66490    0.30782    1.000
    O38      O        0.66698    0.82963    0.26979    1.000
    O39      O        0.56743    0.67749    0.20253    1.000
    O40      O        0.48558    0.80073    0.19239    1.000
    O41      O        0.37259    0.67709    0.25454    1.000
    O42      O        0.35556    0.84134    0.29188    1.000
    O43      O        0.34283    0.68022    0.40601    1.000
    O44      O        0.36333    0.83959    0.45003    1.000
    O45      O        0.46583    0.70122    0.52304    1.000
    O46      O        0.54558    0.83025    0.52171    1.000
    O47      O        0.63922    0.66475    0.47559    1.000
    O48      O        0.68961    0.80153    0.42544    1.000
    O49      O        0.79358    0.88505    0.32331    1.000
    H21      H        0.80350    0.84100    0.34790    1.000
    H22      H        0.76350    0.91600    0.33720    1.000
    O50      O        0.86662    0.73938    0.38761    1.000
    H23      H        0.88500    0.72300    0.35680    1.000
    H24      H        0.89560    0.75400    0.41080    1.000
    O51      O        0.75074    0.42073    0.51619    1.000
    H25      H        0.76270    0.37770    0.49180    1.000
    H26      H        0.72200    0.39000    0.53540    1.000
    O52      O        0.80000    0.53410    0.34346    1.000
    H27      H        0.83000    0.51600    0.32000    1.000
    H28      H        0.78800    0.59000    0.32800    1.000
    O53      O        0.90698    0.51354    0.46633    1.000
    H29      H        0.90700    0.55560    0.49400    1.000
    H30      H        0.91850    0.46000    0.48300    1.000
    K7       K        0.77520    0.61322    0.45690    1.000
    K8       K        0.41705    0.99514    0.21116    1.000
    O54      O        0.81370    0.48370    0.36720    1.000
    K9       K        0.77040    0.60040    0.44010    1.000
    Cu7      Cu       0.73873    0.16483    0.73999    1.000
    Cu8      Cu       0.93934    0.32938    0.61176    1.000
    C37      C        0.91939    0.25099    0.83101    1.000
    C38      C        0.97938    0.24982    0.79481    1.000
    C39      C        0.04367    0.24576    0.82361    1.000
    C40      C        0.04840    0.24186    0.88885    1.000
    C41      C        0.98868    0.24299    0.92512    1.000
    C42      C        0.92403    0.24860    0.89623    1.000
    C43      C        0.84900    0.25490    0.80046    1.000
    C44      C        0.97582    0.25516    0.72439    1.000
    C45      C        0.10978    0.24488    0.78609    1.000
    C46      C        0.11925    0.23965    0.91840    1.000
    C47      C        0.99395    0.23912    0.99543    1.000
    C48      C        0.85985    0.26006    0.93560    1.000
    O55      O        0.81256    0.33510    0.80782    1.000
    O56      O        0.83302    0.17037    0.76979    1.000
    O57      O        0.93257    0.32251    0.70253    1.000
    O58      O        0.01442    0.19927    0.69239    1.000
    O59      O        0.12741    0.32291    0.75454    1.000
    O60      O        0.14444    0.15866    0.79188    1.000
    O61      O        0.15717    0.31978    0.90601    1.000
    O62      O        0.13667    0.16041    0.95003    1.000
    O63      O        0.03417    0.29878    0.02304    1.000
    O64      O        0.95442    0.16975    0.02171    1.000
    O65      O        0.86078    0.33525    0.97559    1.000
    O66      O        0.81039    0.19847    0.92544    1.000
    O67      O        0.70642    0.11495    0.82331    1.000
    H31      H        0.69650    0.15900    0.84790    1.000
    H32      H        0.73650    0.08400    0.83720    1.000
    O68      O        0.63338    0.26062    0.88761    1.000
    H33      H        0.61500    0.27700    0.85680    1.000
    H34      H        0.60440    0.24600    0.91080    1.000
    O69      O        0.74926    0.57927    0.01619    1.000
    H35      H        0.73730    0.62230    0.99180    1.000
    H36      H        0.77800    0.61000    0.03540    1.000
    O70      O        0.70000    0.46590    0.84346    1.000
    H37      H        0.67000    0.48400    0.82000    1.000
    H38      H        0.71200    0.41000    0.82800    1.000
    O71      O        0.59302    0.48646    0.96633    1.000
    H39      H        0.59300    0.44440    0.99400    1.000
    H40      H        0.58150    0.54000    0.98300    1.000
    K10      K        0.72480    0.38678    0.95690    1.000
    K11      K        0.08295    0.00486    0.71116    1.000
    O72      O        0.68630    0.51630    0.86720    1.000
    K12      K        0.72960    0.39960    0.94010    1.000
    Cu9      Cu       0.76127    0.66483    0.73999    1.000
    Cu10     Cu       0.56066    0.82938    0.61176    1.000
    C49      C        0.58061    0.75099    0.83101    1.000
    C50      C        0.52062    0.74982    0.79481    1.000
    C51      C        0.45633    0.74576    0.82361    1.000
    C52      C        0.45160    0.74186    0.88885    1.000
    C53      C        0.51132    0.74299    0.92512    1.000
    C54      C        0.57597    0.74860    0.89623    1.000
    C55      C        0.65100    0.75490    0.80046    1.000
    C56      C        0.52418    0.75516    0.72439    1.000
    C57      C        0.39022    0.74488    0.78609    1.000
    C58      C        0.38075    0.73965    0.91840    1.000
    C59      C        0.50605    0.73912    0.99543    1.000
    C60      C        0.64015    0.76006    0.93560    1.000
    O73      O        0.68744    0.83510    0.80782    1.000
    O74      O        0.66698    0.67037    0.76979    1.000
    O75      O        0.56743    0.82251    0.70253    1.000
    O76      O        0.48558    0.69927    0.69239    1.000
    O77      O        0.37259    0.82291    0.75454    1.000
    O78      O        0.35556    0.65866    0.79188    1.000
    O79      O        0.34283    0.81978    0.90601    1.000
    O80      O        0.36333    0.66041    0.95003    1.000
    O81      O        0.46583    0.79878    0.02304    1.000
    O82      O        0.54558    0.66975    0.02171    1.000
    O83      O        0.63922    0.83525    0.97559    1.000
    O84      O        0.68961    0.69847    0.92544    1.000
    O85      O        0.79358    0.61495    0.82331    1.000
    H41      H        0.80350    0.65900    0.84790    1.000
    H42      H        0.76350    0.58400    0.83720    1.000
    O86      O        0.86662    0.76062    0.88761    1.000
    H43      H        0.88500    0.77700    0.85680    1.000
    H44      H        0.89560    0.74600    0.91080    1.000
    O87      O        0.75074    0.07927    0.01619    1.000
    H45      H        0.76270    0.12230    0.99180    1.000
    H46      H        0.72200    0.11000    0.03540    1.000
    O88      O        0.80000    0.96590    0.84346    1.000
    H47      H        0.83000    0.98400    0.82000    1.000
    H48      H        0.78800    0.91000    0.82800    1.000
    O89      O        0.90698    0.98646    0.96633    1.000
    H49      H        0.90700    0.94440    0.99400    1.000
    H50      H        0.91850    0.04000    0.98300    1.000
    K13      K        0.77520    0.88678    0.95690    1.000
    K14      K        0.41705    0.50486    0.71116    1.000
    O90      O        0.81370    0.01630    0.86720    1.000
    K15      K        0.77040    0.89960    0.94010    1.000
    Cu11     Cu       0.73873    0.33517    0.23999    1.000
    Cu12     Cu       0.93934    0.17062    0.11176    1.000
    C61      C        0.91939    0.24901    0.33101    1.000
    C62      C        0.97938    0.25018    0.29481    1.000
    C63      C        0.04367    0.25424    0.32361    1.000
    C64      C        0.04840    0.25814    0.38885    1.000
    C65      C        0.98868    0.25701    0.42512    1.000
    C66      C        0.92403    0.25140    0.39623    1.000
    C67      C        0.84900    0.24510    0.30046    1.000
    C68      C        0.97582    0.24484    0.22439    1.000
    C69      C        0.10978    0.25512    0.28609    1.000
    C70      C        0.11925    0.26035    0.41840    1.000
    C71      C        0.99395    0.26088    0.49543    1.000
    C72      C        0.85985    0.23994    0.43560    1.000
    O91      O        0.81256    0.16490    0.30782    1.000
    O92      O        0.83302    0.32963    0.26979    1.000
    O93      O        0.93257    0.17749    0.20253    1.000
    O94      O        0.01442    0.30073    0.19239    1.000
    O95      O        0.12741    0.17709    0.25454    1.000
    O96      O        0.14444    0.34134    0.29188    1.000
    O97      O        0.15717    0.18022    0.40601    1.000
    O98      O        0.13667    0.33959    0.45003    1.000
    O99      O        0.03417    0.20122    0.52304    1.000
    O100     O        0.95442    0.33025    0.52171    1.000
    O101     O        0.86078    0.16475    0.47559    1.000
    O102     O        0.81039    0.30153    0.42544    1.000
    O103     O        0.70642    0.38505    0.32331    1.000
    H51      H        0.69650    0.34100    0.34790    1.000
    H52      H        0.73650    0.41600    0.33720    1.000
    O104     O        0.63338    0.23938    0.38761    1.000
    H53      H        0.61500    0.22300    0.35680    1.000
    H54      H        0.60440    0.25400    0.41080    1.000
    O105     O        0.74926    0.92073    0.51619    1.000
    H55      H        0.73730    0.87770    0.49180    1.000
    H56      H        0.77800    0.89000    0.53540    1.000
    O106     O        0.70000    0.03410    0.34346    1.000
    H57      H        0.67000    0.01600    0.32000    1.000
    H58      H        0.71200    0.09000    0.32800    1.000
    O107     O        0.59302    0.01354    0.46633    1.000
    H59      H        0.59300    0.05560    0.49400    1.000
    H60      H        0.58150    0.96000    0.48300    1.000
    K16      K        0.72480    0.11322    0.45690    1.000
    K17      K        0.08295    0.49514    0.21116    1.000
    O108     O        0.68630    0.98370    0.36720    1.000
    K18      K        0.72960    0.10040    0.44010    1.000
    Cu13     Cu       0.23873    0.16483    0.76001    1.000
    Cu14     Cu       0.43934    0.32938    0.88824    1.000
    C73      C        0.41939    0.25099    0.66899    1.000
    C74      C        0.47938    0.24982    0.70519    1.000
    C75      C        0.54367    0.24576    0.67639    1.000
    C76      C        0.54840    0.24186    0.61115    1.000
    C77      C        0.48868    0.24299    0.57488    1.000
    C78      C        0.42403    0.24860    0.60377    1.000
    C79      C        0.34900    0.25490    0.69954    1.000
    C80      C        0.47582    0.25516    0.77561    1.000
    C81      C        0.60978    0.24488    0.71391    1.000
    C82      C        0.61925    0.23965    0.58160    1.000
    C83      C        0.49395    0.23912    0.50457    1.000
    C84      C        0.35985    0.26006    0.56440    1.000
    O109     O        0.31256    0.33510    0.69218    1.000
    O110     O        0.33302    0.17037    0.73021    1.000
    O111     O        0.43257    0.32251    0.79747    1.000
    O112     O        0.51442    0.19927    0.80761    1.000
    O113     O        0.62741    0.32291    0.74546    1.000
    O114     O        0.64444    0.15866    0.70812    1.000
    O115     O        0.65717    0.31978    0.59399    1.000
    O116     O        0.63667    0.16041    0.54997    1.000
    O117     O        0.53417    0.29878    0.47696    1.000
    O118     O        0.45442    0.16975    0.47829    1.000
    O119     O        0.36078    0.33525    0.52441    1.000
    O120     O        0.31039    0.19847    0.57456    1.000
    O121     O        0.20642    0.11495    0.67669    1.000
    H61      H        0.19650    0.15900    0.65210    1.000
    H62      H        0.23650    0.08400    0.66280    1.000
    O122     O        0.13338    0.26062    0.61239    1.000
    H63      H        0.11500    0.27700    0.64320    1.000
    H64      H        0.10440    0.24600    0.58920    1.000
    O123     O        0.24926    0.57927    0.48381    1.000
    H65      H        0.23730    0.62230    0.50820    1.000
    H66      H        0.27800    0.61000    0.46460    1.000
    O124     O        0.20000    0.46590    0.65654    1.000
    H67      H        0.17000    0.48400    0.68000    1.000
    H68      H        0.21200    0.41000    0.67200    1.000
    O125     O        0.09302    0.48646    0.53367    1.000
    H69      H        0.09300    0.44440    0.50600    1.000
    H70      H        0.08150    0.54000    0.51700    1.000
    K19      K        0.22480    0.38678    0.54310    1.000
    K20      K        0.58295    0.00486    0.78884    1.000
    O126     O        0.18630    0.51630    0.63280    1.000
    K21      K        0.22960    0.39960    0.55990    1.000
    Cu15     Cu       0.26127    0.83517    0.26001    1.000
    Cu16     Cu       0.06066    0.67062    0.38824    1.000
    C85      C        0.08061    0.74901    0.16899    1.000
    C86      C        0.02062    0.75018    0.20519    1.000
    C87      C        0.95633    0.75424    0.17639    1.000
    C88      C        0.95160    0.75814    0.11115    1.000
    C89      C        0.01132    0.75701    0.07488    1.000
    C90      C        0.07597    0.75140    0.10377    1.000
    C91      C        0.15100    0.74510    0.19954    1.000
    C92      C        0.02418    0.74484    0.27561    1.000
    C93      C        0.89022    0.75512    0.21391    1.000
    C94      C        0.88075    0.76035    0.08160    1.000
    C95      C        0.00605    0.76088    0.00457    1.000
    C96      C        0.14015    0.73994    0.06440    1.000
    O127     O        0.18744    0.66490    0.19218    1.000
    O128     O        0.16698    0.82963    0.23021    1.000
    O129     O        0.06743    0.67749    0.29747    1.000
    O130     O        0.98558    0.80073    0.30761    1.000
    O131     O        0.87259    0.67709    0.24546    1.000
    O132     O        0.85556    0.84134    0.20812    1.000
    O133     O        0.84283    0.68022    0.09399    1.000
    O134     O        0.86333    0.83959    0.04997    1.000
    O135     O        0.96583    0.70122    0.97696    1.000
    O136     O        0.04558    0.83025    0.97829    1.000
    O137     O        0.13922    0.66475    0.02441    1.000
    O138     O        0.18961    0.80153    0.07456    1.000
    O139     O        0.29358    0.88505    0.17669    1.000
    H71      H        0.30350    0.84100    0.15210    1.000
    H72      H        0.26350    0.91600    0.16280    1.000
    O140     O        0.36662    0.73938    0.11239    1.000
    H73      H        0.38500    0.72300    0.14320    1.000
    H74      H        0.39560    0.75400    0.08920    1.000
    O141     O        0.25074    0.42073    0.98381    1.000
    H75      H        0.26270    0.37770    0.00820    1.000
    H76      H        0.22200    0.39000    0.96460    1.000
    O142     O        0.30000    0.53410    0.15654    1.000
    H77      H        0.33000    0.51600    0.18000    1.000
    H78      H        0.28800    0.59000    0.17200    1.000
    O143     O        0.40698    0.51354    0.03367    1.000
    H79      H        0.40700    0.55560    0.00600    1.000
    H80      H        0.41850    0.46000    0.01700    1.000
    K22      K        0.27520    0.61322    0.04310    1.000
    K23      K        0.91705    0.99514    0.28884    1.000
    O144     O        0.31370    0.48370    0.13280    1.000
    K24      K        0.27040    0.60040    0.05990    1.000
