# CIF file generated by openbabel 3.1.0, see https://openbabel.org
data_I
_chemical_name_common 'VEWKUF_clean'
_cell_length_a 20.6536
_cell_length_b 20.7926
_cell_length_c 33.4974
_cell_angle_alpha 90
_cell_angle_beta 90
_cell_angle_gamma 118.619
_space_group_name_H-M_alt 'P 1'
_space_group_name_Hall 'P 1'
loop_
    _symmetry_equiv_pos_as_xyz
    x,y,z
loop_
    _atom_site_label
    _atom_site_type_symbol
    _atom_site_fract_x
    _atom_site_fract_y
    _atom_site_fract_z
    _atom_site_occupancy
    Zn1      Zn       0.65271    0.81726    0.00192    1.000
    Zn2      Zn       0.84293    0.18873    0.93992    1.000
    Zn3      Zn       0.74912    0.00187    0.96994    1.000
    Zn4      Zn       0.34719    0.18262    0.50174    1.000
    Zn5      Zn       0.15687    0.81103    0.43980    1.000
    Zn6      Zn       0.25114    0.99789    0.47029    1.000
    C7       C        0.79320    0.13363    0.01331    1.000
    C8       C        0.79245    0.14069    0.05712    1.000
    C9       C        0.85115    0.19915    0.07686    1.000
    C10      C        0.85486    0.20082    0.11848    1.000
    C11      C        0.79930    0.14482    0.14136    1.000
    C12      C        0.73867    0.08848    0.12148    1.000
    C13      C        0.73540    0.08635    0.07986    1.000
    C14      C        0.28698    0.92118    0.41327    1.000
    C15      C        0.35938    0.94668    0.39405    1.000
    C16      C        0.38914    0.89891    0.38867    1.000
    C17      C        0.46077    0.92526    0.37394    1.000
    C18      C        0.50397    0.99990    0.36466    1.000
    C19      C        0.47350    0.04703    0.36967    1.000
    C20      C        0.40184    0.02054    0.38368    1.000
    C21      C        0.29875    0.12988    0.42764    1.000
    C22      C        0.30063    0.13627    0.38374    1.000
    C23      C        0.24159    0.08495    0.36089    1.000
    C24      C        0.24456    0.08776    0.31933    1.000
    C25      C        0.30741    0.14110    0.29939    1.000
    C26      C        0.36648    0.19289    0.32251    1.000
    C27      C        0.36272    0.19099    0.36417    1.000
    C28      C        0.78322    0.92510    0.02886    1.000
    C29      C        0.85432    0.95164    0.04989    1.000
    C30      C        0.88514    0.90516    0.05630    1.000
    C31      C        0.95685    0.93328    0.07121    1.000
    C32      C        0.99896    0.00834    0.08015    1.000
    C33      C        0.96649    0.05377    0.07552    1.000
    C34      C        0.89500    0.02571    0.06079    1.000
    C35      C        0.07753    0.04038    0.09235    1.000
    C36      C        0.12334    0.01532    0.07531    1.000
    C37      C        0.19817    0.04810    0.08493    1.000
    C38      C        0.23062    0.10900    0.11113    1.000
    C39      C        0.18326    0.13224    0.12886    1.000
    C40      C        0.10822    0.09856    0.11969    1.000
    C41      C        0.80513    0.14473    0.18564    1.000
    C42      C        0.83830    0.21082    0.20700    1.000
    C43      C        0.84380    0.21115    0.24849    1.000
    C44      C        0.81695    0.14508    0.27034    1.000
    C45      C        0.78184    0.07884    0.24857    1.000
    C46      C        0.77709    0.07864    0.20701    1.000
    C47      C        0.85078    0.22136    0.33474    1.000
    C48      C        0.92773    0.26774    0.33129    1.000
    C49      C        0.96201    0.33841    0.34778    1.000
    C50      C        0.92029    0.36586    0.36768    1.000
    C51      C        0.84381    0.32033    0.37073    1.000
    C52      C        0.81012    0.24906    0.35582    1.000
    C53      C        0.73196    0.09852    0.32791    1.000
    C54      C        0.68233    0.11938    0.31068    1.000
    C55      C        0.70210    0.03762    0.35414    1.000
    C56      C        0.31356    0.14725    0.12327    1.000
    C57      C        0.35247    0.10570    0.10538    1.000
    C58      C        0.36568    0.11013    0.06384    1.000
    C59      C        0.40052    0.07452    0.04605    1.000
    C60      C        0.42471    0.03385    0.06907    1.000
    C61      C        0.41300    0.02955    0.11047    1.000
    C62      C        0.37838    0.06565    0.12847    1.000
    C63      C        0.35613    0.22701    0.10662    1.000
    C64      C        0.32186    0.26243    0.08639    1.000
    C65      C        0.36325    0.33370    0.07143    1.000
    C66      C        0.44046    0.37193    0.07542    1.000
    C67      C        0.47501    0.33680    0.09505    1.000
    C68      C        0.43389    0.26570    0.10990    1.000
    C69      C        0.48510    0.44761    0.05884    1.000
    C70      C        0.45809    0.49828    0.05911    1.000
    C71      C        0.50097    0.56959    0.04434    1.000
    C72      C        0.57211    0.59237    0.02903    1.000
    C73      C        0.59874    0.54154    0.02826    1.000
    C74      C        0.55580    0.47020    0.04281    1.000
    C75      C        0.31078    0.14289    0.25485    1.000
    C76      C        0.27148    0.07863    0.23226    1.000
    C77      C        0.35183    0.20923    0.23439    1.000
    C78      C        0.58085    0.02968    0.35020    1.000
    C79      C        0.60847    0.08587    0.32173    1.000
    C80      C        0.62801    0.00475    0.36566    1.000
    C81      C        0.81509    0.14255    0.31670    1.000
    C82      C        0.85938    0.10583    0.33391    1.000
    C83      C        0.86925    0.10613    0.37563    1.000
    C84      C        0.90651    0.07221    0.39289    1.000
    C85      C        0.93751    0.03845    0.36905    1.000
    C86      C        0.93114    0.04069    0.32740    1.000
    C87      C        0.89358    0.07447    0.31006    1.000
    C88      C        0.97826    0.00310    0.38747    1.000
    C89      C        0.97796    0.94158    0.36964    1.000
    C90      C        0.46608    0.00014    0.05008    1.000
    C91      C        0.45934    0.93329    0.06381    1.000
    C92      C        0.31526    0.14711    0.16973    1.000
    C93      C        0.35394    0.21146    0.19278    1.000
    C94      C        0.27239    0.08097    0.19061    1.000
    C95      C        0.60549    0.91888    0.00229    1.000
    C96      C        0.50254    0.90500    0.04721    1.000
    C97      C        0.55273    0.94277    0.01638    1.000
    C98      C        0.55676    0.00753    0.00148    1.000
    C99      C        0.51481    0.03639    0.01847    1.000
    C100     C        0.10945    0.91241    0.43646    1.000
    C101     C        0.01909    0.91084    0.38598    1.000
    C102     C        0.06073    0.94034    0.42079    1.000
    C103     C        0.05903    0.99998    0.43940    1.000
    C104     C        0.01889    0.03136    0.42281    1.000
    C105     C        0.95528    0.44095    0.38574    1.000
    C106     C        0.92556    0.45486    0.42053    1.000
    C107     C        0.95511    0.52563    0.43642    1.000
    C108     C        0.01653    0.58441    0.41858    1.000
    C109     C        0.04756    0.57040    0.38447    1.000
    C110     C        0.01715    0.49978    0.36811    1.000
    C111     C        0.61831    0.66893    0.01451    1.000
    C112     C        0.04872    0.65992    0.43532    1.000
    C113     C        0.20711    0.86575    0.51318    1.000
    C114     C        0.20823    0.85943    0.55702    1.000
    C115     C        0.14941    0.80125    0.57671    1.000
    C116     C        0.14542    0.79963    0.61828    1.000
    C117     C        0.20086    0.85557    0.64123    1.000
    C118     C        0.26158    0.91199    0.62141    1.000
    C119     C        0.26512    0.91408    0.57978    1.000
    C120     C        0.71273    0.07908    0.91347    1.000
    C121     C        0.64030    0.05345    0.89426    1.000
    C122     C        0.61062    0.10121    0.88874    1.000
    C123     C        0.53914    0.07488    0.87386    1.000
    C124     C        0.49597    0.00025    0.86453    1.000
    C125     C        0.52646    0.95314    0.86957    1.000
    C126     C        0.59804    0.97963    0.88372    1.000
    C127     C        0.70178    0.86957    0.92781    1.000
    C128     C        0.70013    0.86387    0.88392    1.000
    C129     C        0.75890    0.91547    0.86095    1.000
    C130     C        0.75547    0.91250    0.81938    1.000
    C131     C        0.69237    0.85894    0.79963    1.000
    C132     C        0.63344    0.80757    0.82297    1.000
    C133     C        0.63776    0.80953    0.86455    1.000
    C134     C        0.21656    0.07515    0.52871    1.000
    C135     C        0.14556    0.04861    0.54978    1.000
    C136     C        0.11483    0.09508    0.55633    1.000
    C137     C        0.04327    0.06696    0.57140    1.000
    C138     C        0.00121    0.99188    0.58034    1.000
    C139     C        0.03372    0.94650    0.57569    1.000
    C140     C        0.10512    0.97460    0.56084    1.000
    C141     C        0.92255    0.95976    0.59239    1.000
    C142     C        0.87680    0.98480    0.57524    1.000
    C143     C        0.80195    0.95203    0.58476    1.000
    C144     C        0.76943    0.89115    0.61096    1.000
    C145     C        0.81667    0.86782    0.62874    1.000
    C146     C        0.89172    0.90148    0.61966    1.000
    C147     C        0.19493    0.85545    0.68554    1.000
    C148     C        0.16174    0.78928    0.70686    1.000
    C149     C        0.15619    0.78888    0.74837    1.000
    C150     C        0.18299    0.85492    0.77025    1.000
    C151     C        0.21813    0.92119    0.74851    1.000
    C152     C        0.22294    0.92146    0.70695    1.000
    C153     C        0.14918    0.77861    0.83468    1.000
    C154     C        0.07223    0.73223    0.83125    1.000
    C155     C        0.03796    0.66158    0.84776    1.000
    C156     C        0.07969    0.63415    0.86767    1.000
    C157     C        0.15616    0.67970    0.87073    1.000
    C158     C        0.18984    0.75095    0.85579    1.000
    C159     C        0.26791    0.90149    0.82787    1.000
    C160     C        0.31754    0.88064    0.81064    1.000
    C161     C        0.29775    0.96238    0.85410    1.000
    C162     C        0.68656    0.85298    0.62306    1.000
    C163     C        0.64762    0.89440    0.60517    1.000
    C164     C        0.63434    0.88990    0.56363    1.000
    C165     C        0.59946    0.92550    0.54588    1.000
    C166     C        0.57533    0.96620    0.56895    1.000
    C167     C        0.58706    0.97044    0.61034    1.000
    C168     C        0.62183    0.93449    0.62828    1.000
    C169     C        0.64394    0.77308    0.60673    1.000
    C170     C        0.67810    0.73763    0.58644    1.000
    C171     C        0.63667    0.66635    0.57151    1.000
    C172     C        0.55947    0.62815    0.57555    1.000
    C173     C        0.52501    0.66331    0.59525    1.000
    C174     C        0.56622    0.73438    0.61016    1.000
    C175     C        0.51480    0.55247    0.55895    1.000
    C176     C        0.54186    0.50183    0.55915    1.000
    C177     C        0.49902    0.43054    0.54435    1.000
    C178     C        0.42788    0.40772    0.52907    1.000
    C179     C        0.40119    0.45854    0.52832    1.000
    C180     C        0.44410    0.52987    0.54292    1.000
    C181     C        0.68866    0.85615    0.75507    1.000
    C182     C        0.72804    0.92024    0.73226    1.000
    C183     C        0.64735    0.78909    0.73520    1.000
    C184     C        0.41903    0.97042    0.85011    1.000
    C185     C        0.39141    0.91420    0.82166    1.000
    C186     C        0.37184    0.99528    0.86562    1.000
    C187     C        0.18480    0.85742    0.81664    1.000
    C188     C        0.14051    0.89408    0.83387    1.000
    C189     C        0.13066    0.89379    0.87560    1.000
    C190     C        0.09345    0.92776    0.89286    1.000
    C191     C        0.06254    0.96160    0.86900    1.000
    C192     C        0.06885    0.95929    0.82736    1.000
    C193     C        0.10636    0.92549    0.81002    1.000
    C194     C        0.02197    0.99706    0.88739    1.000
    C195     C        0.02231    0.05861    0.86955    1.000
    C196     C        0.53407    0.00000    0.55003    1.000
    C197     C        0.54084    0.06686    0.56379    1.000
    C198     C        0.68475    0.85314    0.66939    1.000
    C199     C        0.64434    0.78547    0.69374    1.000
    C200     C        0.72758    0.91856    0.69061    1.000
    C201     C        0.39407    0.08039    0.50262    1.000
    C202     C        0.49742    0.09502    0.54728    1.000
    C203     C        0.44706    0.05704    0.51658    1.000
    C204     C        0.44331    0.99245    0.50152    1.000
    C205     C        0.48534    0.96373    0.51846    1.000
    C206     C        0.89016    0.08681    0.93618    1.000
    C207     C        0.98097    0.08922    0.88585    1.000
    C208     C        0.93910    0.05944    0.92055    1.000
    C209     C        0.94109    0.00000    0.93927    1.000
    C210     C        0.98135    0.96878    0.92271    1.000
    C211     C        0.04470    0.55906    0.88572    1.000
    C212     C        0.07443    0.54514    0.92052    1.000
    C213     C        0.04487    0.47437    0.93641    1.000
    C214     C        0.98343    0.41559    0.91857    1.000
    C215     C        0.95241    0.42961    0.88447    1.000
    C216     C        0.98283    0.50022    0.86810    1.000
    C217     C        0.38172    0.33116    0.51451    1.000
    C218     C        0.95130    0.34007    0.93531    1.000
    O219     O        0.34795    0.18119    0.44852    1.000
    O220     O        0.24692    0.07339    0.44426    1.000
    O221     O        0.24934    0.85425    0.42271    1.000
    O222     O        0.26361    0.96652    0.42092    1.000
    O223     O        0.15004    0.94394    0.46652    1.000
    O224     O        0.10918    0.85682    0.42022    1.000
    O225     O        0.60912    0.86701    0.02026    1.000
    O226     O        0.64785    0.95215    0.97291    1.000
    O227     O        0.74303    0.07617    0.99646    1.000
    O228     O        0.84315    0.18540    0.99296    1.000
    O229     O        0.74499    0.85736    0.02039    1.000
    O230     O        0.76122    0.97092    0.01936    1.000
    O231     O        0.11562    0.71481    0.42059    1.000
    O232     O        0.59549    0.72134    0.02089    1.000
    O233     O        0.67668    0.68667    0.99759    1.000
    O234     O        0.01776    0.67408    0.46217    1.000
    O235     O        0.65240    0.81844    0.94864    1.000
    O236     O        0.75353    0.92582    0.94451    1.000
    O237     O        0.75023    0.14590    0.92313    1.000
    O238     O        0.73637    0.03371    0.92074    1.000
    O239     O        0.84941    0.05459    0.96612    1.000
    O240     O        0.89031    0.14263    0.92034    1.000
    O241     O        0.39051    0.13264    0.52013    1.000
    O242     O        0.35145    0.04621    0.47346    1.000
    O243     O        0.25724    0.92283    0.49616    1.000
    O244     O        0.15690    0.81417    0.49292    1.000
    O245     O        0.25466    0.14278    0.51992    1.000
    O246     O        0.23869    0.02916    0.51953    1.000
    O247     O        0.88442    0.28507    0.92058    1.000
    O248     O        0.40448    0.27867    0.52084    1.000
    O249     O        0.32339    0.31347    0.49757    1.000
    O250     O        0.98232    0.32598    0.96216    1.000
    H251     H        0.89554    0.24267    0.06023    1.000
    H252     H        0.90263    0.24492    0.13257    1.000
    H253     H        0.69368    0.04562    0.13802    1.000
    H254     H        0.68867    0.04144    0.06548    1.000
    H255     H        0.35773    0.84149    0.39656    1.000
    H256     H        0.48216    0.88725    0.36986    1.000
    H257     H        0.50567    0.10511    0.36363    1.000
    H258     H        0.38057    0.05858    0.38742    1.000
    H259     H        0.19283    0.04238    0.37512    1.000
    H260     H        0.19696    0.04814    0.30300    1.000
    H261     H        0.41642    0.23435    0.30867    1.000
    H262     H        0.40915    0.23150    0.38100    1.000
    H263     H        0.85488    0.84757    0.04864    1.000
    H264     H        0.97963    0.89641    0.07516    1.000
    H265     H        0.99736    0.11183    0.08174    1.000
    H266     H        0.87268    0.06281    0.05665    1.000
    H267     H        0.10173    0.97100    0.05381    1.000
    H268     H        0.22913    0.02437    0.07137    1.000
    H269     H        0.20482    0.17738    0.14983    1.000
    H270     H        0.07418    0.11831    0.13407    1.000
    H271     H        0.85834    0.26284    0.19180    1.000
    H272     H        0.86686    0.26391    0.26292    1.000
    H273     H        0.75773    0.02668    0.26403    1.000
    H274     H        0.75141    0.02640    0.19173    1.000
    H275     H        0.96139    0.24878    0.31567    1.000
    H276     H        0.02134    0.37089    0.34537    1.000
    H277     H        0.80913    0.33960    0.38479    1.000
    H278     H        0.75190    0.21681    0.36152    1.000
    H279     H        0.70167    0.16439    0.28968    1.000
    H280     H        0.73486    0.01493    0.36664    1.000
    H281     H        0.34828    0.14119    0.04487    1.000
    H282     H        0.40857    0.07917    0.01403    1.000
    H283     H        0.43275    0.00024    0.12930    1.000
    H284     H        0.37397    0.06243    0.16053    1.000
    H285     H        0.26320    0.23584    0.08124    1.000
    H286     H        0.33446    0.35816    0.05592    1.000
    H287     H        0.53412    0.36448    0.09948    1.000
    H288     H        0.46297    0.24064    0.12458    1.000
    H289     H        0.40426    0.48339    0.07143    1.000
    H290     H        0.47837    0.60702    0.04508    1.000
    H291     H        0.65320    0.55699    0.01668    1.000
    H292     H        0.57800    0.43250    0.04121    1.000
    H293     H        0.24003    0.02594    0.24657    1.000
    H294     H        0.38128    0.26046    0.25034    1.000
    H295     H        0.57317    0.10512    0.30838    1.000
    H296     H        0.60833    0.96117    0.38761    1.000
    H297     H        0.84611    0.13141    0.39515    1.000
    H298     H        0.90995    0.07178    0.42511    1.000
    H299     H        0.95656    0.01759    0.30794    1.000
    H300     H        0.89304    0.07601    0.27790    1.000
    H301     H        0.94599    0.91697    0.34299    1.000
    H302     H        0.42132    0.90316    0.08764    1.000
    H303     H        0.38506    0.26483    0.17947    1.000
    H304     H        0.23993    0.03038    0.17443    1.000
    H305     H        0.49760    0.85436    0.05906    1.000
    H306     H        0.59455    0.03778    0.97769    1.000
    H307     H        0.52268    0.08871    0.00770    1.000
    H308     H        0.01918    0.86468    0.37106    1.000
    H309     H        0.09010    0.02363    0.46648    1.000
    H310     H        0.02141    0.07902    0.43729    1.000
    H311     H        0.87947    0.41084    0.43582    1.000
    H312     H        0.92994    0.53405    0.46287    1.000
    H313     H        0.09497    0.61437    0.37002    1.000
    H314     H        0.04138    0.49178    0.34117    1.000
    H315     H        0.10505    0.75797    0.55997    1.000
    H316     H        0.09757    0.75545    0.63228    1.000
    H317     H        0.30645    0.95483    0.63803    1.000
    H318     H        0.31182    0.95924    0.56550    1.000
    H319     H        0.64215    0.15871    0.89648    1.000
    H320     H        0.51773    0.11287    0.86972    1.000
    H321     H        0.49429    0.89507    0.86352    1.000
    H322     H        0.61954    0.94172    0.88728    1.000
    H323     H        0.80775    0.95834    0.87502    1.000
    H324     H        0.80297    0.95191    0.80289    1.000
    H325     H        0.58323    0.76607    0.80938    1.000
    H326     H        0.59148    0.76940    0.88159    1.000
    H327     H        0.14516    0.15273    0.54876    1.000
    H328     H        0.02046    0.10380    0.57540    1.000
    H329     H        0.00293    0.88844    0.58194    1.000
    H330     H        0.12771    0.93767    0.55684    1.000
    H331     H        0.89845    0.02913    0.55374    1.000
    H332     H        0.77098    0.97572    0.57115    1.000
    H333     H        0.79495    0.82262    0.64966    1.000
    H334     H        0.92562    0.88163    0.63410    1.000
    H335     H        0.14170    0.73729    0.69162    1.000
    H336     H        0.13312    0.73611    0.76279    1.000
    H337     H        0.24223    0.97333    0.76396    1.000
    H338     H        0.24862    0.97370    0.69169    1.000
    H339     H        0.03856    0.75120    0.81566    1.000
    H340     H        0.97862    0.62911    0.84537    1.000
    H341     H        0.19084    0.66044    0.88480    1.000
    H342     H        0.24805    0.78323    0.86151    1.000
    H343     H        0.29819    0.83560    0.78967    1.000
    H344     H        0.26495    0.98504    0.86661    1.000
    H345     H        0.65182    0.85891    0.54464    1.000
    H346     H        0.59134    0.92088    0.51387    1.000
    H347     H        0.56724    0.99963    0.62922    1.000
    H348     H        0.62651    0.93791    0.66033    1.000
    H349     H        0.73673    0.76425    0.58116    1.000
    H350     H        0.66542    0.64190    0.55596    1.000
    H351     H        0.46589    0.63569    0.59966    1.000
    H352     H        0.53722    0.75954    0.62484    1.000
    H353     H        0.59572    0.51672    0.57143    1.000
    H354     H        0.52164    0.39313    0.54504    1.000
    H355     H        0.34674    0.44308    0.51673    1.000
    H356     H        0.42188    0.56756    0.54133    1.000
    H357     H        0.75954    0.97288    0.74659    1.000
    H358     H        0.61837    0.73831    0.75161    1.000
    H359     H        0.42667    0.89493    0.80831    1.000
    H360     H        0.39147    0.03882    0.88760    1.000
    H361     H        0.15387    0.86860    0.89513    1.000
    H362     H        0.09003    0.92823    0.92508    1.000
    H363     H        0.04348    0.98244    0.80790    1.000
    H364     H        0.10698    0.92402    0.77787    1.000
    H365     H        0.05427    0.08314    0.84290    1.000
    H366     H        0.57884    0.09692    0.58762    1.000
    H367     H        0.61371    0.73195    0.68045    1.000
    H368     H        0.76031    0.96941    0.67471    1.000
    H369     H        0.50228    0.14565    0.55916    1.000
    H370     H        0.40561    0.96219    0.47773    1.000
    H371     H        0.47730    0.91138    0.50770    1.000
    H372     H        0.98093    0.13545    0.87094    1.000
    H373     H        0.91014    0.97637    0.96634    1.000
    H374     H        0.97872    0.92110    0.93718    1.000
    H375     H        0.12054    0.58914    0.93580    1.000
    H376     H        0.07004    0.46594    0.96286    1.000
    H377     H        0.90501    0.38563    0.87001    1.000
    H378     H        0.95861    0.50821    0.84116    1.000
