# CIF file generated by openbabel 3.1.0, see https://openbabel.org
data_I
_chemical_name_common 'XEXLUJ_clean'
_cell_length_a 5.6137
_cell_length_b 17.1499
_cell_length_c 26.3769
_cell_angle_alpha 90
_cell_angle_beta 90
_cell_angle_gamma 96.82
_space_group_name_H-M_alt 'P 1'
_space_group_name_Hall 'P 1'
loop_
    _symmetry_equiv_pos_as_xyz
    x,y,z
loop_
    _atom_site_label
    _atom_site_type_symbol
    _atom_site_fract_x
    _atom_site_fract_y
    _atom_site_fract_z
    _atom_site_occupancy
    Zn1      Zn       0.10949    0.57242    0.52830    1.000
    Zn2      Zn       0.89051    0.92758    0.02830    1.000
    Zn3      Zn       0.89051    0.42758    0.47170    1.000
    Zn4      Zn       0.10949    0.07242    0.97170    1.000
    H1       H        0.47170    0.89690    0.10010    1.000
    H2       H        0.39630    0.83220    0.17720    1.000
    H3       H        0.98670    0.72230    0.15410    1.000
    H4       H        0.04750    0.79080    0.07860    1.000
    H5       H        0.12300    0.57430    0.26250    1.000
    H6       H        0.06870    0.51400    0.34230    1.000
    H7       H        0.05090    0.72050    0.42060    1.000
    H8       H        0.08790    0.78310    0.34190    1.000
    H9       H        0.52830    0.60310    0.60010    1.000
    H10      H        0.60370    0.66780    0.67720    1.000
    H11      H        0.01330    0.77770    0.65410    1.000
    H12      H        0.95250    0.70920    0.57860    1.000
    H13      H        0.87700    0.92570    0.76250    1.000
    H14      H        0.93130    0.98600    0.84230    1.000
    H15      H        0.94910    0.77950    0.92060    1.000
    H16      H        0.91210    0.71690    0.84190    1.000
    H17      H        0.52830    0.10310    0.89990    1.000
    H18      H        0.60370    0.16780    0.82280    1.000
    H19      H        0.01330    0.27770    0.84590    1.000
    H20      H        0.95250    0.20920    0.92140    1.000
    H21      H        0.87700    0.42570    0.73750    1.000
    H22      H        0.93130    0.48600    0.65770    1.000
    H23      H        0.94910    0.27950    0.57940    1.000
    H24      H        0.91210    0.21690    0.65810    1.000
    H25      H        0.47170    0.39690    0.39990    1.000
    H26      H        0.39630    0.33220    0.32280    1.000
    H27      H        0.98670    0.22230    0.34590    1.000
    H28      H        0.04750    0.29080    0.42140    1.000
    H29      H        0.12300    0.07430    0.23750    1.000
    H30      H        0.06870    0.01400    0.15770    1.000
    H31      H        0.05090    0.22050    0.07940    1.000
    H32      H        0.08790    0.28310    0.15810    1.000
    C1       C        0.57870    0.86190    0.11172    1.000
    C2       C        0.53270    0.82350    0.15761    1.000
    C3       C        0.68860    0.77260    0.17432    1.000
    C4       C        0.88100    0.75880    0.14415    1.000
    C5       C        0.91470    0.79950    0.09932    1.000
    C6       C        0.45220    0.68110    0.23031    1.000
    C7       C        0.42620    0.64420    0.28075    1.000
    C8       C        0.59580    0.66440    0.31919    1.000
    C9       C        0.79540    0.72110    0.30982    1.000
    C10      C        0.83250    0.75730    0.25939    1.000
    C11      C        0.23440    0.58850    0.28902    1.000
    C12      C        0.20230    0.55250    0.33679    1.000
    C13      C        0.36240    0.57220    0.37584    1.000
    C14      C        0.56840    0.62710    0.36783    1.000
    C15      C        0.75160    0.64730    0.40461    1.000
    C16      C        0.93660    0.70550    0.39481    1.000
    C17      C        0.95960    0.74280    0.34783    1.000
    C18      C        0.28180    0.54080    0.42707    1.000
    C19      C        0.78440    0.59840    0.45094    1.000
    C20      C        0.42130    0.63810    0.61172    1.000
    C21      C        0.46730    0.67650    0.65761    1.000
    C22      C        0.31140    0.72740    0.67432    1.000
    C23      C        0.11900    0.74120    0.64415    1.000
    C24      C        0.08530    0.70050    0.59932    1.000
    C25      C        0.54780    0.81890    0.73031    1.000
    C26      C        0.57380    0.85580    0.78075    1.000
    C27      C        0.40420    0.83560    0.81919    1.000
    C28      C        0.20460    0.77890    0.80982    1.000
    C29      C        0.16750    0.74270    0.75939    1.000
    C30      C        0.76560    0.91150    0.78902    1.000
    C31      C        0.79770    0.94750    0.83679    1.000
    C32      C        0.63760    0.92780    0.87584    1.000
    C33      C        0.43160    0.87290    0.86783    1.000
    C34      C        0.24840    0.85270    0.90461    1.000
    C35      C        0.06340    0.79450    0.89481    1.000
    C36      C        0.04040    0.75720    0.84783    1.000
    C37      C        0.71820    0.95920    0.92707    1.000
    C38      C        0.21560    0.90160    0.95094    1.000
    C39      C        0.42130    0.13810    0.88828    1.000
    C40      C        0.46730    0.17650    0.84239    1.000
    C41      C        0.31140    0.22740    0.82568    1.000
    C42      C        0.11900    0.24120    0.85585    1.000
    C43      C        0.08530    0.20050    0.90068    1.000
    C44      C        0.54780    0.31890    0.76969    1.000
    C45      C        0.57380    0.35580    0.71925    1.000
    C46      C        0.40420    0.33560    0.68081    1.000
    C47      C        0.20460    0.27890    0.69018    1.000
    C48      C        0.16750    0.24270    0.74061    1.000
    C49      C        0.76560    0.41150    0.71098    1.000
    C50      C        0.79770    0.44750    0.66321    1.000
    C51      C        0.63760    0.42780    0.62416    1.000
    C52      C        0.43160    0.37290    0.63217    1.000
    C53      C        0.24840    0.35270    0.59539    1.000
    C54      C        0.06340    0.29450    0.60519    1.000
    C55      C        0.04040    0.25720    0.65217    1.000
    C56      C        0.71820    0.45920    0.57293    1.000
    C57      C        0.21560    0.40160    0.54906    1.000
    C58      C        0.57870    0.36190    0.38828    1.000
    C59      C        0.53270    0.32350    0.34239    1.000
    C60      C        0.68860    0.27260    0.32568    1.000
    C61      C        0.88100    0.25880    0.35585    1.000
    C62      C        0.91470    0.29950    0.40068    1.000
    C63      C        0.45220    0.18110    0.26969    1.000
    C64      C        0.42620    0.14420    0.21925    1.000
    C65      C        0.59580    0.16440    0.18081    1.000
    C66      C        0.79540    0.22110    0.19018    1.000
    C67      C        0.83250    0.25730    0.24061    1.000
    C68      C        0.23440    0.08850    0.21098    1.000
    C69      C        0.20230    0.05250    0.16321    1.000
    C70      C        0.36240    0.07220    0.12416    1.000
    C71      C        0.56840    0.12710    0.13217    1.000
    C72      C        0.75160    0.14730    0.09539    1.000
    C73      C        0.93660    0.20550    0.10519    1.000
    C74      C        0.95960    0.24280    0.15217    1.000
    C75      C        0.28180    0.04080    0.07293    1.000
    C76      C        0.78440    0.09840    0.04906    1.000
    N1       N        0.76900    0.85090    0.08346    1.000
    N2       N        0.65680    0.73590    0.22312    1.000
    N3       N        0.23100    0.64910    0.58346    1.000
    N4       N        0.34320    0.76410    0.72312    1.000
    N5       N        0.23100    0.14910    0.91654    1.000
    N6       N        0.34320    0.26410    0.77688    1.000
    N7       N        0.76900    0.35090    0.41654    1.000
    N8       N        0.65680    0.23590    0.27688    1.000
    O1       O        0.30210    0.58903    0.46379    1.000
    O2       O        0.18160    0.47165    0.42854    1.000
    O3       O        0.74860    0.52545    0.44509    1.000
    O4       O        0.86870    0.63347    0.48978    1.000
    O5       O        0.31120    0.66650    0.19617    1.000
    O6       O        0.00310    0.80450    0.24899    1.000
    O7       O        0.69790    0.91097    0.96379    1.000
    O8       O        0.81840    0.02835    0.92854    1.000
    O9       O        0.25140    0.97455    0.94509    1.000
    O10      O        0.13130    0.86653    0.98978    1.000
    O11      O        0.68880    0.83350    0.69617    1.000
    O12      O        0.99690    0.69550    0.74899    1.000
    O13      O        0.69790    0.41097    0.53621    1.000
    O14      O        0.81840    0.52835    0.57146    1.000
    O15      O        0.25140    0.47455    0.55491    1.000
    O16      O        0.13130    0.36653    0.51022    1.000
    O17      O        0.68880    0.33350    0.80383    1.000
    O18      O        0.99690    0.19550    0.75101    1.000
    O19      O        0.30210    0.08903    0.03621    1.000
    O20      O        0.18160    0.97165    0.07146    1.000
    O21      O        0.74860    0.02545    0.05491    1.000
    O22      O        0.86870    0.13347    0.01022    1.000
    O23      O        0.31120    0.16650    0.30383    1.000
    O24      O        0.00310    0.30450    0.25101    1.000
