# CIF file generated by openbabel 3.1.0, see https://openbabel.org
data_I
_chemical_name_common 'image0'
_cell_length_a 16.5492
_cell_length_b 14.8523
_cell_length_c 17.7313
_cell_angle_alpha 90
_cell_angle_beta 112.758
_cell_angle_gamma 90
_space_group_name_H-M_alt 'P 1'
_space_group_name_Hall 'P 1'
loop_
    _symmetry_equiv_pos_as_xyz
    x,y,z
loop_
    _atom_site_label
    _atom_site_type_symbol
    _atom_site_fract_x
    _atom_site_fract_y
    _atom_site_fract_z
    _atom_site_occupancy
    C1       C        0.87900    0.81100    0.31870    1.000
    C2       C        0.78640    0.79310    0.30630    1.000
    C3       C        0.75930    0.71160    0.32550    1.000
    H1       H        0.80080    0.66640    0.34680    1.000
    C4       C        0.67270    0.69350    0.31460    1.000
    C5       C        0.61470    0.76520    0.28590    1.000
    H2       H        0.55660    0.75780    0.27950    1.000
    C6       C        0.64170    0.84780    0.26660    1.000
    H3       H        0.60140    0.89450    0.24740    1.000
    C7       C        0.72650    0.86100    0.27550    1.000
    H4       H        0.74350    0.91580    0.26080    1.000
    C8       C        0.82680    0.32990    0.54640    1.000
    C9       C        0.79630    0.42650    0.53500    1.000
    C10      C        0.74440    0.45750    0.45830    1.000
    H5       H        0.72940    0.41840    0.41390    1.000
    C11      C        0.71350    0.54660    0.44530    1.000
    C12      C        0.73860    0.60420    0.51140    1.000
    H6       H        0.72040    0.66400    0.50370    1.000
    C13      C        0.79070    0.57400    0.58930    1.000
    H7       H        0.80580    0.61290    0.63380    1.000
    C14      C        0.82010    0.48560    0.60050    1.000
    H8       H        0.85610    0.46580    0.65240    1.000
    C15      C        0.73510    0.42940    0.11510    1.000
    C16      C        0.68930    0.42260    0.17090    1.000
    C17      C        0.68450    0.49630    0.21780    1.000
    H9       H        0.71270    0.54950    0.21460    1.000
    C18      C        0.63940    0.49290    0.26870    1.000
    C19      C        0.59690    0.41060    0.27000    1.000
    H10      H        0.56360    0.40630    0.30170    1.000
    C20      C        0.60310    0.33780    0.22650    1.000
    H11      H        0.57650    0.28380    0.23040    1.000
    C21      C        0.64870    0.34460    0.17680    1.000
    H12      H        0.65200    0.29480    0.14630    1.000
    C22      C        0.29030    0.61000    0.17300    1.000
    C23      C        0.36490    0.59850    0.25540    1.000
    C24      C        0.45210    0.59410    0.26140    1.000
    H13      H        0.46310    0.59580    0.21380    1.000
    C25      C        0.52180    0.58730    0.33590    1.000
    C26      C        0.50250    0.58380    0.40590    1.000
    H14      H        0.54780    0.57930    0.45710    1.000
    C27      C        0.41630    0.58690    0.39960    1.000
    H15      H        0.40420    0.58330    0.44650    1.000
    C28      C        0.34870    0.59540    0.32430    1.000
    H16      H        0.29130    0.59900    0.32090    1.000
    C29      C        0.11790    0.78310    0.22650    1.000
    H17      H        0.15140    0.73340    0.25210    1.000
    C30      C        0.11150    0.81770    0.15470    1.000
    H18      H        0.13940    0.79690    0.12150    1.000
    C31      C        0.03110    0.89540    0.20220    1.000
    H19      H        0.99300    0.93890    0.20700    1.000
    N1       N        0.06680    0.83280    0.25610    1.000
    N2       N        0.05590    0.88950    0.13970    1.000
    O1       O        0.90210    0.88430    0.30050    1.000
    O2       O        0.93430    0.74760    0.34830    1.000
    O3       O        0.88040    0.30750    0.61340    1.000
    O4       O        0.79270    0.27900    0.48410    1.000
    O5       O        0.21710    0.62580    0.16980    1.000
    O6       O        0.31000    0.60740    0.11030    1.000
    O7       O        0.73060    0.36000    0.07180    1.000
    O8       O        0.77430    0.49660    0.11340    1.000
    O9       O        0.09630    0.88910    0.45040    1.000
    C32      C        0.02750    0.94650    0.06820    1.000
    Si1      Si       0.63725    0.58249    0.34062    1.000
    Zn1      Zn       0.04732    0.80535    0.35899    1.000
    Zn2      Zn       0.21712    0.85496    0.50932    1.000
    C33      C        0.99830    0.90710    0.99180    1.000
    H20      H        0.99810    0.84480    0.98670    1.000
    C34      C        0.03060    0.03880    0.07710    1.000
    H21      H        0.05190    0.06460    0.12900    1.000
    C35      C        0.12100    0.31100    0.18130    1.000
    C36      C        0.21360    0.29310    0.19370    1.000
    C37      C        0.24070    0.21160    0.17450    1.000
    H22      H        0.19920    0.16640    0.15320    1.000
    C38      C        0.32730    0.19350    0.18540    1.000
    C39      C        0.38530    0.26520    0.21410    1.000
    H23      H        0.44340    0.25780    0.22050    1.000
    C40      C        0.35830    0.34780    0.23340    1.000
    H24      H        0.39860    0.39450    0.25260    1.000
    C41      C        0.27350    0.36100    0.22450    1.000
    H25      H        0.25650    0.41580    0.23920    1.000
    C42      C        0.17320    0.82990    0.95360    1.000
    C43      C        0.20370    0.92650    0.96500    1.000
    C44      C        0.25560    0.95750    0.04170    1.000
    H26      H        0.27060    0.91840    0.08610    1.000
    C45      C        0.28650    0.04660    0.05470    1.000
    C46      C        0.26140    0.10420    0.98860    1.000
    H27      H        0.27960    0.16400    0.99630    1.000
    C47      C        0.20930    0.07400    0.91070    1.000
    H28      H        0.19420    0.11290    0.86620    1.000
    C48      C        0.17990    0.98560    0.89950    1.000
    H29      H        0.14390    0.96580    0.84760    1.000
    C49      C        0.26490    0.92940    0.38490    1.000
    C50      C        0.31070    0.92260    0.32910    1.000
    C51      C        0.31550    0.99630    0.28220    1.000
    H30      H        0.28730    0.04950    0.28540    1.000
    C52      C        0.36060    0.99290    0.23130    1.000
    C53      C        0.40310    0.91060    0.23000    1.000
    H31      H        0.43640    0.90630    0.19830    1.000
    C54      C        0.39690    0.83780    0.27350    1.000
    H32      H        0.42350    0.78380    0.26960    1.000
    C55      C        0.35130    0.84460    0.32320    1.000
    H33      H        0.34800    0.79480    0.35370    1.000
    C56      C        0.70970    0.11000    0.32700    1.000
    C57      C        0.63510    0.09850    0.24460    1.000
    C58      C        0.54790    0.09410    0.23860    1.000
    H34      H        0.53690    0.09580    0.28620    1.000
    C59      C        0.47820    0.08730    0.16410    1.000
    C60      C        0.49750    0.08380    0.09410    1.000
    H35      H        0.45220    0.07930    0.04290    1.000
    C61      C        0.58370    0.08690    0.10040    1.000
    H36      H        0.59580    0.08330    0.05350    1.000
    C62      C        0.65130    0.09540    0.17570    1.000
    H37      H        0.70870    0.09900    0.17910    1.000
    C63      C        0.88210    0.28310    0.27350    1.000
    H38      H        0.84860    0.23340    0.24790    1.000
    C64      C        0.88850    0.31770    0.34530    1.000
    H39      H        0.86060    0.29690    0.37850    1.000
    C65      C        0.96890    0.39540    0.29780    1.000
    H40      H        0.00700    0.43890    0.29300    1.000
    N3       N        0.93320    0.33280    0.24390    1.000
    N4       N        0.94410    0.38950    0.36030    1.000
    O10      O        0.09790    0.38430    0.19950    1.000
    O11      O        0.06570    0.24760    0.15170    1.000
    O12      O        0.11960    0.80750    0.88660    1.000
    O13      O        0.20730    0.77900    0.01590    1.000
    O14      O        0.78290    0.12580    0.33020    1.000
    O15      O        0.69000    0.10740    0.38970    1.000
    O16      O        0.26940    0.86000    0.42820    1.000
    O17      O        0.22570    0.99660    0.38660    1.000
    O18      O        0.90370    0.38910    0.04960    1.000
    C66      C        0.97250    0.44650    0.43180    1.000
    Si2      Si       0.36275    0.08249    0.15938    1.000
    Zn3      Zn       0.95268    0.30535    0.14101    1.000
    Zn4      Zn       0.78288    0.35496    0.99068    1.000
    C67      C        0.00170    0.40710    0.50820    1.000
    H41      H        0.00190    0.34480    0.51330    1.000
    C68      C        0.96940    0.53880    0.42290    1.000
    H42      H        0.94810    0.56460    0.37100    1.000
    C69      C        0.12100    0.18900    0.68130    1.000
    C70      C        0.21360    0.20690    0.69370    1.000
    C71      C        0.24070    0.28840    0.67450    1.000
    H43      H        0.19920    0.33360    0.65320    1.000
    C72      C        0.32730    0.30650    0.68540    1.000
    C73      C        0.38530    0.23480    0.71410    1.000
    H44      H        0.44340    0.24220    0.72050    1.000
    C74      C        0.35830    0.15220    0.73340    1.000
    H45      H        0.39860    0.10550    0.75260    1.000
    C75      C        0.27350    0.13900    0.72450    1.000
    H46      H        0.25650    0.08420    0.73920    1.000
    C76      C        0.17320    0.67010    0.45360    1.000
    C77      C        0.20370    0.57350    0.46500    1.000
    C78      C        0.25560    0.54250    0.54170    1.000
    H47      H        0.27060    0.58160    0.58610    1.000
    C79      C        0.28650    0.45340    0.55470    1.000
    C80      C        0.26140    0.39580    0.48860    1.000
    H48      H        0.27960    0.33600    0.49630    1.000
    C81      C        0.20930    0.42600    0.41070    1.000
    H49      H        0.19420    0.38710    0.36620    1.000
    C82      C        0.17990    0.51440    0.39950    1.000
    H50      H        0.14390    0.53420    0.34760    1.000
    C83      C        0.26490    0.57060    0.88490    1.000
    C84      C        0.31070    0.57740    0.82910    1.000
    C85      C        0.31550    0.50370    0.78220    1.000
    H51      H        0.28730    0.45050    0.78540    1.000
    C86      C        0.36060    0.50710    0.73130    1.000
    C87      C        0.40310    0.58940    0.73000    1.000
    H52      H        0.43640    0.59370    0.69830    1.000
    C88      C        0.39690    0.66220    0.77350    1.000
    H53      H        0.42350    0.71620    0.76960    1.000
    C89      C        0.35130    0.65540    0.82320    1.000
    H54      H        0.34800    0.70520    0.85370    1.000
    C90      C        0.70970    0.39000    0.82700    1.000
    C91      C        0.63510    0.40150    0.74460    1.000
    C92      C        0.54790    0.40590    0.73860    1.000
    H55      H        0.53690    0.40420    0.78620    1.000
    C93      C        0.47820    0.41270    0.66410    1.000
    C94      C        0.49750    0.41620    0.59410    1.000
    H56      H        0.45220    0.42070    0.54290    1.000
    C95      C        0.58370    0.41310    0.60040    1.000
    H57      H        0.59580    0.41670    0.55350    1.000
    C96      C        0.65130    0.40460    0.67570    1.000
    H58      H        0.70870    0.40100    0.67910    1.000
    C97      C        0.88210    0.21690    0.77350    1.000
    H59      H        0.84860    0.26660    0.74790    1.000
    C98      C        0.88850    0.18230    0.84530    1.000
    H60      H        0.86060    0.20310    0.87850    1.000
    C99      C        0.96890    0.10460    0.79780    1.000
    H61      H        0.00700    0.06110    0.79300    1.000
    N5       N        0.93320    0.16720    0.74390    1.000
    N6       N        0.94410    0.11050    0.86030    1.000
    O19      O        0.09790    0.11570    0.69950    1.000
    O20      O        0.06570    0.25240    0.65170    1.000
    O21      O        0.11960    0.69250    0.38660    1.000
    O22      O        0.20730    0.72100    0.51590    1.000
    O23      O        0.78290    0.37420    0.83020    1.000
    O24      O        0.69000    0.39260    0.88970    1.000
    O25      O        0.26940    0.64000    0.92820    1.000
    O26      O        0.22570    0.50340    0.88660    1.000
    O27      O        0.90370    0.11090    0.54960    1.000
    C100     C        0.97250    0.05350    0.93180    1.000
    Si3      Si       0.36275    0.41751    0.65938    1.000
    Zn5      Zn       0.95268    0.19465    0.64101    1.000
    Zn6      Zn       0.78288    0.14504    0.49068    1.000
    C101     C        0.00170    0.09290    0.00820    1.000
    H62      H        0.00190    0.15520    0.01330    1.000
    C102     C        0.96940    0.96120    0.92290    1.000
    H63      H        0.94810    0.93540    0.87100    1.000
    C103     C        0.87900    0.68900    0.81870    1.000
    C104     C        0.78640    0.70690    0.80630    1.000
    C105     C        0.75930    0.78840    0.82550    1.000
    H64      H        0.80080    0.83360    0.84680    1.000
    C106     C        0.67270    0.80650    0.81460    1.000
    C107     C        0.61470    0.73480    0.78590    1.000
    H65      H        0.55660    0.74220    0.77950    1.000
    C108     C        0.64170    0.65220    0.76660    1.000
    H66      H        0.60140    0.60550    0.74740    1.000
    C109     C        0.72650    0.63900    0.77550    1.000
    H67      H        0.74350    0.58420    0.76080    1.000
    C110     C        0.82680    0.17010    0.04640    1.000
    C111     C        0.79630    0.07350    0.03500    1.000
    C112     C        0.74440    0.04250    0.95830    1.000
    H68      H        0.72940    0.08160    0.91390    1.000
    C113     C        0.71350    0.95340    0.94530    1.000
    C114     C        0.73860    0.89580    0.01140    1.000
    H69      H        0.72040    0.83600    0.00370    1.000
    C115     C        0.79070    0.92600    0.08930    1.000
    H70      H        0.80580    0.88710    0.13380    1.000
    C116     C        0.82010    0.01440    0.10050    1.000
    H71      H        0.85610    0.03420    0.15240    1.000
    C117     C        0.73510    0.07060    0.61510    1.000
    C118     C        0.68930    0.07740    0.67090    1.000
    C119     C        0.68450    0.00370    0.71780    1.000
    H72      H        0.71270    0.95050    0.71460    1.000
    C120     C        0.63940    0.00710    0.76870    1.000
    C121     C        0.59690    0.08940    0.77000    1.000
    H73      H        0.56360    0.09370    0.80170    1.000
    C122     C        0.60310    0.16220    0.72650    1.000
    H74      H        0.57650    0.21620    0.73040    1.000
    C123     C        0.64870    0.15540    0.67680    1.000
    H75      H        0.65200    0.20520    0.64630    1.000
    C124     C        0.29030    0.89000    0.67300    1.000
    C125     C        0.36490    0.90150    0.75540    1.000
    C126     C        0.45210    0.90590    0.76140    1.000
    H76      H        0.46310    0.90420    0.71380    1.000
    C127     C        0.52180    0.91270    0.83590    1.000
    C128     C        0.50250    0.91620    0.90590    1.000
    H77      H        0.54780    0.92070    0.95710    1.000
    C129     C        0.41630    0.91310    0.89960    1.000
    H78      H        0.40420    0.91670    0.94650    1.000
    C130     C        0.34870    0.90460    0.82430    1.000
    H79      H        0.29130    0.90100    0.82090    1.000
    C131     C        0.11790    0.71690    0.72650    1.000
    H80      H        0.15140    0.76660    0.75210    1.000
    C132     C        0.11150    0.68230    0.65470    1.000
    H81      H        0.13940    0.70310    0.62150    1.000
    C133     C        0.03110    0.60460    0.70220    1.000
    H82      H        0.99300    0.56110    0.70700    1.000
    N7       N        0.06680    0.66720    0.75610    1.000
    N8       N        0.05590    0.61050    0.63970    1.000
    O28      O        0.90210    0.61570    0.80050    1.000
    O29      O        0.93430    0.75240    0.84830    1.000
    O30      O        0.88040    0.19250    0.11340    1.000
    O31      O        0.79270    0.22100    0.98410    1.000
    O32      O        0.21710    0.87420    0.66980    1.000
    O33      O        0.31000    0.89260    0.61030    1.000
    O34      O        0.73060    0.14000    0.57180    1.000
    O35      O        0.77430    0.00340    0.61340    1.000
    O36      O        0.09630    0.61090    0.95040    1.000
    C134     C        0.02750    0.55350    0.56820    1.000
    Si4      Si       0.63725    0.91751    0.84062    1.000
    Zn7      Zn       0.04732    0.69465    0.85899    1.000
    Zn8      Zn       0.21712    0.64504    0.00932    1.000
    C135     C        0.99830    0.59290    0.49180    1.000
    H83      H        0.99810    0.65520    0.48670    1.000
    C136     C        0.03060    0.46120    0.57710    1.000
    H84      H        0.05190    0.43540    0.62900    1.000
