# CIF file generated by openbabel 3.1.0, see https://openbabel.org
data_I
_chemical_name_common 'image0'
_cell_length_a 10.448
_cell_length_b 10.448
_cell_length_c 6.522
_cell_angle_alpha 90
_cell_angle_beta 90
_cell_angle_gamma 90
_space_group_name_H-M_alt 'P 1'
_space_group_name_Hall 'P 1'
loop_
    _symmetry_equiv_pos_as_xyz
    x,y,z
loop_
    _atom_site_label
    _atom_site_type_symbol
    _atom_site_fract_x
    _atom_site_fract_y
    _atom_site_fract_z
    _atom_site_occupancy
    N1       N        0.09260    0.40580    0.02990    1.000
    C1       C        0.08830    0.51030    0.14360    1.000
    H1       H        0.15100    0.52150    0.24760    1.000
    C2       C        0.00530    0.39450    0.88290    1.000
    H2       H        0.00610    0.32180    0.79540    1.000
    O1       O        0.21120    0.16350    0.40870    1.000
    C3       C        0.13970    0.30140    0.45860    1.000
    H3       H        0.08740    0.32450    0.57390    1.000
    H4       H        0.12360    0.15780    0.37860    1.000
    H5       H        0.25980    0.09500    0.37540    1.000
    N2       N        0.40740    0.09420    0.02990    1.000
    C4       C        0.41170    0.98970    0.14360    1.000
    H6       H        0.34900    0.97850    0.24760    1.000
    C5       C        0.49470    0.10550    0.88290    1.000
    H7       H        0.49390    0.17820    0.79540    1.000
    O2       O        0.28880    0.33650    0.40870    1.000
    C6       C        0.36030    0.19860    0.45860    1.000
    H8       H        0.41260    0.17550    0.57390    1.000
    H9       H        0.37640    0.34220    0.37860    1.000
    H10      H        0.24020    0.40500    0.37540    1.000
    N3       N        0.09420    0.09260    0.02990    1.000
    C7       C        0.98970    0.08830    0.14360    1.000
    H11      H        0.97850    0.15100    0.24760    1.000
    C8       C        0.10550    0.00530    0.88290    1.000
    H12      H        0.17820    0.00610    0.79540    1.000
    O3       O        0.33650    0.21120    0.40870    1.000
    C9       C        0.19860    0.13970    0.45860    1.000
    H13      H        0.17550    0.08740    0.57390    1.000
    H14      H        0.34220    0.12360    0.37860    1.000
    H15      H        0.40500    0.25980    0.37540    1.000
    N4       N        0.40580    0.40740    0.02990    1.000
    C10      C        0.51030    0.41170    0.14360    1.000
    H16      H        0.52150    0.34900    0.24760    1.000
    C11      C        0.39450    0.49470    0.88290    1.000
    H17      H        0.32180    0.49390    0.79540    1.000
    O4       O        0.16350    0.28880    0.40870    1.000
    C12      C        0.30140    0.36030    0.45860    1.000
    H18      H        0.32450    0.41260    0.57390    1.000
    H19      H        0.15780    0.37640    0.37860    1.000
    H20      H        0.09500    0.24020    0.37540    1.000
    N5       N        0.90740    0.59420    0.97010    1.000
    C13      C        0.91170    0.48970    0.85640    1.000
    H21      H        0.84900    0.47850    0.75240    1.000
    C14      C        0.99470    0.60550    0.11710    1.000
    H22      H        0.99390    0.67820    0.20460    1.000
    O5       O        0.78880    0.83650    0.59130    1.000
    C15      C        0.86030    0.69860    0.54140    1.000
    H23      H        0.91260    0.67550    0.42610    1.000
    H24      H        0.87640    0.84220    0.62140    1.000
    H25      H        0.74020    0.90500    0.62460    1.000
    N6       N        0.59260    0.90580    0.97010    1.000
    C16      C        0.58830    0.01030    0.85640    1.000
    H26      H        0.65100    0.02150    0.75240    1.000
    C17      C        0.50530    0.89450    0.11710    1.000
    H27      H        0.50610    0.82180    0.20460    1.000
    O6       O        0.71120    0.66350    0.59130    1.000
    C18      C        0.63970    0.80140    0.54140    1.000
    H28      H        0.58740    0.82450    0.42610    1.000
    H29      H        0.62360    0.65780    0.62140    1.000
    H30      H        0.75980    0.59500    0.62460    1.000
    N7       N        0.90580    0.90740    0.97010    1.000
    C19      C        0.01030    0.91170    0.85640    1.000
    H31      H        0.02150    0.84900    0.75240    1.000
    C20      C        0.89450    0.99470    0.11710    1.000
    H32      H        0.82180    0.99390    0.20460    1.000
    O7       O        0.66350    0.78880    0.59130    1.000
    C21      C        0.80140    0.86030    0.54140    1.000
    H33      H        0.82450    0.91260    0.42610    1.000
    H34      H        0.65780    0.87640    0.62140    1.000
    H35      H        0.59500    0.74020    0.62460    1.000
    N8       N        0.59420    0.59260    0.97010    1.000
    C22      C        0.48970    0.58830    0.85640    1.000
    H36      H        0.47850    0.65100    0.75240    1.000
    C23      C        0.60550    0.50530    0.11710    1.000
    H37      H        0.67820    0.50610    0.20460    1.000
    O8       O        0.83650    0.71120    0.59130    1.000
    C24      C        0.69860    0.63970    0.54140    1.000
    H38      H        0.67550    0.58740    0.42610    1.000
    H39      H        0.84220    0.62360    0.62140    1.000
    H40      H        0.90500    0.75980    0.62460    1.000
    Cd1      Cd       0.25000    0.25000    0.08138    1.000
    O9       O        0.25000    0.25000    0.70900    1.000
    C25      C        0.25000    0.25000    0.52560    1.000
    Cd2      Cd       0.75000    0.75000    0.91862    1.000
    O10      O        0.75000    0.75000    0.29100    1.000
    C26      C        0.75000    0.75000    0.47440    1.000
