# CIF file generated by openbabel 3.1.0, see https://openbabel.org
data_I
_chemical_name_common 'NICZAA01_charged'
_cell_length_a 10.9262
_cell_length_b 10.9262
_cell_length_c 10.9262
_cell_angle_alpha 66.5468
_cell_angle_beta 66.5468
_cell_angle_gamma 66.5468
_space_group_name_H-M_alt 'P 1'
_space_group_name_Hall 'P 1'
loop_
    _symmetry_equiv_pos_as_xyz
    x,y,z
loop_
    _atom_site_label
    _atom_site_type_symbol
    _atom_site_fract_x
    _atom_site_fract_y
    _atom_site_fract_z
    _atom_site_occupancy
    Cd1      Cd       0.00000    0.00000    0.00000    1.000
    H1       H        0.82850    0.29960    0.43030    1.000
    H2       H        0.43030    0.82850    0.29960    1.000
    H3       H        0.29960    0.43030    0.82850    1.000
    H4       H        0.70040    0.17150    0.56970    1.000
    H5       H        0.17150    0.56970    0.70040    1.000
    H6       H        0.56970    0.70040    0.17150    1.000
    H7       H        0.17150    0.70040    0.56970    1.000
    H8       H        0.56970    0.17150    0.70040    1.000
    H9       H        0.70040    0.56970    0.17150    1.000
    H10      H        0.29960    0.82850    0.43030    1.000
    H11      H        0.82850    0.43030    0.29960    1.000
    H12      H        0.43030    0.29960    0.82850    1.000
    H13      H        0.66760    0.15590    0.15590    1.000
    H14      H        0.57490    0.30575    0.30575    1.000
    H15      H        0.15590    0.66760    0.15590    1.000
    H16      H        0.30575    0.57490    0.30575    1.000
    H17      H        0.15590    0.15590    0.66760    1.000
    H18      H        0.30575    0.30575    0.57490    1.000
    H19      H        0.84410    0.33240    0.84410    1.000
    H20      H        0.69425    0.42510    0.69425    1.000
    H21      H        0.33240    0.84410    0.84410    1.000
    H22      H        0.42510    0.69425    0.69425    1.000
    H23      H        0.84410    0.84410    0.33240    1.000
    H24      H        0.69425    0.69425    0.42510    1.000
    H25      H        0.80035    0.80035    0.01770    1.000
    H26      H        0.01770    0.80035    0.80035    1.000
    H27      H        0.80035    0.01770    0.80035    1.000
    H28      H        0.19965    0.19965    0.98230    1.000
    H29      H        0.19965    0.98230    0.19965    1.000
    H30      H        0.98230    0.19965    0.19965    1.000
    C1       C        0.89200    0.20705    0.20705    1.000
    C2       C        0.72050    0.18345    0.18345    1.000
    C3       C        0.66850    0.26600    0.26600    1.000
    C4       C        0.77930    0.36135    0.36135    1.000
    C5       C        0.63382    0.43337    0.43337    1.000
    C6       C        0.20705    0.89200    0.20705    1.000
    C7       C        0.18345    0.72050    0.18345    1.000
    C8       C        0.26600    0.66850    0.26600    1.000
    C9       C        0.36135    0.77930    0.36135    1.000
    C10      C        0.43337    0.63382    0.43337    1.000
    C11      C        0.20705    0.20705    0.89200    1.000
    C12      C        0.18345    0.18345    0.72050    1.000
    C13      C        0.26600    0.26600    0.66850    1.000
    C14      C        0.36135    0.36135    0.77930    1.000
    C15      C        0.43337    0.43337    0.63382    1.000
    C16      C        0.79295    0.10800    0.79295    1.000
    C17      C        0.81655    0.27950    0.81655    1.000
    C18      C        0.73400    0.33150    0.73400    1.000
    C19      C        0.63865    0.22070    0.63865    1.000
    C20      C        0.56663    0.36618    0.56663    1.000
    C21      C        0.10800    0.79295    0.79295    1.000
    C22      C        0.27950    0.81655    0.81655    1.000
    C23      C        0.33150    0.73400    0.73400    1.000
    C24      C        0.22070    0.63865    0.63865    1.000
    C25      C        0.36618    0.56663    0.56663    1.000
    C26      C        0.79295    0.79295    0.10800    1.000
    C27      C        0.81655    0.81655    0.27950    1.000
    C28      C        0.73400    0.73400    0.33150    1.000
    C29      C        0.63865    0.63865    0.22070    1.000
    C30      C        0.56663    0.56663    0.36618    1.000
    N1       N        0.85452    0.85452    0.13847    1.000
    N2       N        0.13847    0.85452    0.85452    1.000
    N3       N        0.85452    0.13847    0.85452    1.000
    N4       N        0.14548    0.14548    0.86153    1.000
    N5       N        0.14548    0.86153    0.14548    1.000
    N6       N        0.86153    0.14548    0.14548    1.000
    N7       N        0.77914    0.28064    0.28064    1.000
    N8       N        0.28064    0.77914    0.28064    1.000
    N9       N        0.28064    0.28064    0.77914    1.000
    N10      N        0.71936    0.22086    0.71936    1.000
    N11      N        0.22086    0.71936    0.71936    1.000
    N12      N        0.71936    0.71936    0.22086    1.000
    F1       F        0.19503    0.19503    0.19503    1.000
    F2       F        0.80497    0.80497    0.80497    1.000
