# CIF file generated by openbabel 3.1.0, see https://openbabel.org
data_I
_chemical_name_common 'FOHCAH_clean'
_cell_length_a 7.3332
_cell_length_b 7.7088
_cell_length_c 12.07
_cell_angle_alpha 90
_cell_angle_beta 91.42
_cell_angle_gamma 90
_space_group_name_H-M_alt 'P 1'
_space_group_name_Hall 'P 1'
loop_
    _symmetry_equiv_pos_as_xyz
    x,y,z
loop_
    _atom_site_label
    _atom_site_type_symbol
    _atom_site_fract_x
    _atom_site_fract_y
    _atom_site_fract_z
    _atom_site_occupancy
    Mg1      Mg       0.00000    0.50000    0.50000    1.000
    Mg2      Mg       0.50000    0.00000    0.50000    1.000
    H1       H        0.44100    0.60740    0.70490    1.000
    H2       H        0.53960    0.78290    0.73510    1.000
    H3       H        0.34440    0.68480    0.87930    1.000
    H4       H        0.77940    0.39070    0.95280    1.000
    H5       H        0.05900    0.10740    0.29510    1.000
    H6       H        0.96040    0.28290    0.26490    1.000
    H7       H        0.15560    0.18480    0.12070    1.000
    H8       H        0.72060    0.89070    0.04720    1.000
    H9       H        0.55900    0.39260    0.29510    1.000
    H10      H        0.46040    0.21710    0.26490    1.000
    H11      H        0.65560    0.31520    0.12070    1.000
    H12      H        0.22060    0.60930    0.04720    1.000
    H13      H        0.94100    0.89260    0.70490    1.000
    H14      H        0.03960    0.71710    0.73510    1.000
    H15      H        0.84440    0.81520    0.87930    1.000
    H16      H        0.27940    0.10930    0.95280    1.000
    C1       C        0.66440    0.65260    0.60810    1.000
    C2       C        0.55910    0.66260    0.71510    1.000
    C3       C        0.57430    0.54240    0.89900    1.000
    C4       C        0.40700    0.61020    0.92740    1.000
    C5       C        0.66620    0.43460    0.97160    1.000
    C6       C        0.83560    0.15260    0.39190    1.000
    C7       C        0.94090    0.16260    0.28490    1.000
    C8       C        0.92570    0.04240    0.10100    1.000
    C9       C        0.09300    0.11020    0.07260    1.000
    C10      C        0.83380    0.93460    0.02840    1.000
    C11      C        0.33560    0.34740    0.39190    1.000
    C12      C        0.44090    0.33740    0.28490    1.000
    C13      C        0.42570    0.45760    0.10100    1.000
    C14      C        0.59300    0.38980    0.07260    1.000
    C15      C        0.33380    0.56540    0.02840    1.000
    C16      C        0.16440    0.84740    0.60810    1.000
    C17      C        0.05910    0.83740    0.71510    1.000
    C18      C        0.07430    0.95760    0.89900    1.000
    C19      C        0.90700    0.88980    0.92740    1.000
    C20      C        0.16620    0.06540    0.97160    1.000
    O1       O        0.78930    0.54360    0.60280    1.000
    O2       O        0.61620    0.75370    0.53087    1.000
    O3       O        0.66040    0.57750    0.80032    1.000
    O4       O        0.71070    0.04360    0.39720    1.000
    O5       O        0.88380    0.25370    0.46913    1.000
    O6       O        0.83960    0.07750    0.19968    1.000
    O7       O        0.21070    0.45640    0.39720    1.000
    O8       O        0.38380    0.24630    0.46913    1.000
    O9       O        0.33960    0.42250    0.19968    1.000
    O10      O        0.28930    0.95640    0.60280    1.000
    O11      O        0.11620    0.74630    0.53087    1.000
    O12      O        0.16040    0.92250    0.80032    1.000
