# CIF file generated by openbabel 3.1.0, see https://openbabel.org
data_I
_chemical_name_common 'image0'
_cell_length_a 22.136
_cell_length_b 16.647
_cell_length_c 16.551
_cell_angle_alpha 90
_cell_angle_beta 114.63
_cell_angle_gamma 90
_space_group_name_H-M_alt 'P 1'
_space_group_name_Hall 'P 1'
loop_
    _symmetry_equiv_pos_as_xyz
    x,y,z
loop_
    _atom_site_label
    _atom_site_type_symbol
    _atom_site_fract_x
    _atom_site_fract_y
    _atom_site_fract_z
    _atom_site_occupancy
    O1       O        0.07390    0.08460    0.62250    1.000
    O2       O        0.96000    0.08530    0.56100    1.000
    O3       O        0.35830    0.13560    0.54540    1.000
    C1       C        0.00250    0.24820    0.96080    1.000
    H1       H        0.00400    0.20340    0.92810    1.000
    C2       C        0.00510    0.33070    0.93740    1.000
    C3       C        0.01330    0.35490    0.86090    1.000
    C4       C        0.01430    0.43470    0.83810    1.000
    C5       C        0.01950    0.45940    0.75880    1.000
    H2       H        0.02240    0.42610    0.71550    1.000
    C6       C        0.01550    0.29150    0.79840    1.000
    C7       C        0.95970    0.26690    0.73480    1.000
    H3       H        0.92020    0.29040    0.73010    1.000
    C8       C        0.95630    0.20490    0.67110    1.000
    H4       H        0.91630    0.18770    0.62670    1.000
    C9       C        0.01600    0.17400    0.68140    1.000
    C10      C        0.07380    0.19530    0.74690    1.000
    H5       H        0.11300    0.17010    0.75300    1.000
    C11      C        0.07510    0.25790    0.80810    1.000
    H6       H        0.11500    0.27500    0.85290    1.000
    C12      C        0.01600    0.10610    0.61530    1.000
    C13      C        0.38100    0.07320    0.53200    1.000
    C14      C        0.47080    0.14570    0.50790    1.000
    H7       H        0.45130    0.19400    0.51230    1.000
    C15      C        0.44340    0.07480    0.51650    1.000
    O4       O        0.92610    0.08460    0.37750    1.000
    O5       O        0.04000    0.08530    0.43900    1.000
    O6       O        0.64170    0.13560    0.45460    1.000
    C16      C        0.99750    0.24820    0.03920    1.000
    H8       H        0.99600    0.20340    0.07190    1.000
    C17      C        0.99490    0.33070    0.06260    1.000
    C18      C        0.98670    0.35490    0.13910    1.000
    C19      C        0.98570    0.43470    0.16190    1.000
    C20      C        0.98050    0.45940    0.24120    1.000
    H9       H        0.97760    0.42610    0.28450    1.000
    C21      C        0.98450    0.29150    0.20160    1.000
    C22      C        0.04030    0.26690    0.26520    1.000
    H10      H        0.07980    0.29040    0.26990    1.000
    C23      C        0.04370    0.20490    0.32890    1.000
    H11      H        0.08370    0.18770    0.37330    1.000
    C24      C        0.98400    0.17400    0.31860    1.000
    C25      C        0.92620    0.19530    0.25310    1.000
    H12      H        0.88700    0.17010    0.24700    1.000
    C26      C        0.92490    0.25790    0.19190    1.000
    H13      H        0.88500    0.27500    0.14710    1.000
    C27      C        0.98400    0.10610    0.38470    1.000
    C28      C        0.61900    0.07320    0.46800    1.000
    C29      C        0.52920    0.14570    0.49210    1.000
    H14      H        0.54870    0.19400    0.48770    1.000
    C30      C        0.55660    0.07480    0.48350    1.000
    O7       O        0.92610    0.91540    0.37750    1.000
    O8       O        0.04000    0.91470    0.43900    1.000
    O9       O        0.64170    0.86440    0.45460    1.000
    C31      C        0.99750    0.75180    0.03920    1.000
    H15      H        0.99600    0.79660    0.07190    1.000
    C32      C        0.99490    0.66930    0.06260    1.000
    C33      C        0.98670    0.64510    0.13910    1.000
    C34      C        0.98570    0.56530    0.16190    1.000
    C35      C        0.98050    0.54060    0.24120    1.000
    H16      H        0.97760    0.57390    0.28450    1.000
    C36      C        0.98450    0.70850    0.20160    1.000
    C37      C        0.04030    0.73310    0.26520    1.000
    H17      H        0.07980    0.70960    0.26990    1.000
    C38      C        0.04370    0.79510    0.32890    1.000
    H18      H        0.08370    0.81230    0.37330    1.000
    C39      C        0.98400    0.82600    0.31860    1.000
    C40      C        0.92620    0.80470    0.25310    1.000
    H19      H        0.88700    0.82990    0.24700    1.000
    C41      C        0.92490    0.74210    0.19190    1.000
    H20      H        0.88500    0.72500    0.14710    1.000
    C42      C        0.98400    0.89390    0.38470    1.000
    C43      C        0.61900    0.92680    0.46800    1.000
    C44      C        0.52920    0.85430    0.49210    1.000
    H21      H        0.54870    0.80600    0.48770    1.000
    C45      C        0.55660    0.92520    0.48350    1.000
    O10      O        0.07390    0.91540    0.62250    1.000
    O11      O        0.96000    0.91470    0.56100    1.000
    O12      O        0.35830    0.86440    0.54540    1.000
    C46      C        0.00250    0.75180    0.96080    1.000
    H22      H        0.00400    0.79660    0.92810    1.000
    C47      C        0.00510    0.66930    0.93740    1.000
    C48      C        0.01330    0.64510    0.86090    1.000
    C49      C        0.01430    0.56530    0.83810    1.000
    C50      C        0.01950    0.54060    0.75880    1.000
    H23      H        0.02240    0.57390    0.71550    1.000
    C51      C        0.01550    0.70850    0.79840    1.000
    C52      C        0.95970    0.73310    0.73480    1.000
    H24      H        0.92020    0.70960    0.73010    1.000
    C53      C        0.95630    0.79510    0.67110    1.000
    H25      H        0.91630    0.81230    0.62670    1.000
    C54      C        0.01600    0.82600    0.68140    1.000
    C55      C        0.07380    0.80470    0.74690    1.000
    H26      H        0.11300    0.82990    0.75300    1.000
    C56      C        0.07510    0.74210    0.80810    1.000
    H27      H        0.11500    0.72500    0.85290    1.000
    C57      C        0.01600    0.89390    0.61530    1.000
    C58      C        0.38100    0.92680    0.53200    1.000
    C59      C        0.47080    0.85430    0.50790    1.000
    H28      H        0.45130    0.80600    0.51230    1.000
    C60      C        0.44340    0.92520    0.51650    1.000
    Zn1      Zn       0.07332    0.00000    0.53624    1.000
    N1       N        0.16590    0.00000    0.54410    1.000
    N2       N        0.35580    0.00000    0.53920    1.000
    C61      C        0.21840    0.00000    0.60880    1.000
    H29      H        0.21450    0.00000    0.66260    1.000
    C62      C        0.28600    0.00000    0.61750    1.000
    H30      H        0.32270    0.00000    0.67210    1.000
    C63      C        0.29080    0.00000    0.54110    1.000
    C64      C        0.23810    0.00000    0.46750    1.000
    H31      H        0.24250    0.00000    0.41410    1.000
    C65      C        0.17200    0.00000    0.46590    1.000
    H32      H        0.13450    0.00000    0.41210    1.000
    C66      C        0.46890    0.00000    0.50720    1.000
    Zn2      Zn       0.92668    0.00000    0.46376    1.000
    N3       N        0.83410    0.00000    0.45590    1.000
    N4       N        0.64420    0.00000    0.46080    1.000
    C67      C        0.78160    0.00000    0.39120    1.000
    H33      H        0.78550    0.00000    0.33740    1.000
    C68      C        0.71400    0.00000    0.38250    1.000
    H34      H        0.67730    0.00000    0.32790    1.000
    C69      C        0.70920    0.00000    0.45890    1.000
    C70      C        0.76190    0.00000    0.53250    1.000
    H35      H        0.75750    0.00000    0.58590    1.000
    C71      C        0.82800    0.00000    0.53410    1.000
    H36      H        0.86550    0.00000    0.58790    1.000
    C72      C        0.53110    0.00000    0.49280    1.000
    N5       N        0.00000    0.38170    0.00000    1.000
    N6       N        0.00000    0.61830    0.00000    1.000
    N7       N        0.01210    0.50000    0.88930    1.000
    N8       N        0.98790    0.50000    0.11070    1.000
    Mn1      Mn       0.00000    0.50000    0.00000    1.000
    O13      O        0.57390    0.58460    0.62250    1.000
    O14      O        0.46000    0.58530    0.56100    1.000
    O15      O        0.85830    0.63560    0.54540    1.000
    C73      C        0.50250    0.74820    0.96080    1.000
    H37      H        0.50400    0.70340    0.92810    1.000
    C74      C        0.50510    0.83070    0.93740    1.000
    C75      C        0.51330    0.85490    0.86090    1.000
    C76      C        0.51430    0.93470    0.83810    1.000
    C77      C        0.51950    0.95940    0.75880    1.000
    H38      H        0.52240    0.92610    0.71550    1.000
    C78      C        0.51550    0.79150    0.79840    1.000
    C79      C        0.45970    0.76690    0.73480    1.000
    H39      H        0.42020    0.79040    0.73010    1.000
    C80      C        0.45630    0.70490    0.67110    1.000
    H40      H        0.41630    0.68770    0.62670    1.000
    C81      C        0.51600    0.67400    0.68140    1.000
    C82      C        0.57380    0.69530    0.74690    1.000
    H41      H        0.61300    0.67010    0.75300    1.000
    C83      C        0.57510    0.75790    0.80810    1.000
    H42      H        0.61500    0.77500    0.85290    1.000
    C84      C        0.51600    0.60610    0.61530    1.000
    C85      C        0.88100    0.57320    0.53200    1.000
    C86      C        0.97080    0.64570    0.50790    1.000
    H43      H        0.95130    0.69400    0.51230    1.000
    C87      C        0.94340    0.57480    0.51650    1.000
    O16      O        0.42610    0.58460    0.37750    1.000
    O17      O        0.54000    0.58530    0.43900    1.000
    O18      O        0.14170    0.63560    0.45460    1.000
    C88      C        0.49750    0.74820    0.03920    1.000
    H44      H        0.49600    0.70340    0.07190    1.000
    C89      C        0.49490    0.83070    0.06260    1.000
    C90      C        0.48670    0.85490    0.13910    1.000
    C91      C        0.48570    0.93470    0.16190    1.000
    C92      C        0.48050    0.95940    0.24120    1.000
    H45      H        0.47760    0.92610    0.28450    1.000
    C93      C        0.48450    0.79150    0.20160    1.000
    C94      C        0.54030    0.76690    0.26520    1.000
    H46      H        0.57980    0.79040    0.26990    1.000
    C95      C        0.54370    0.70490    0.32890    1.000
    H47      H        0.58370    0.68770    0.37330    1.000
    C96      C        0.48400    0.67400    0.31860    1.000
    C97      C        0.42620    0.69530    0.25310    1.000
    H48      H        0.38700    0.67010    0.24700    1.000
    C98      C        0.42490    0.75790    0.19190    1.000
    H49      H        0.38500    0.77500    0.14710    1.000
    C99      C        0.48400    0.60610    0.38470    1.000
    C100     C        0.11900    0.57320    0.46800    1.000
    C101     C        0.02920    0.64570    0.49210    1.000
    H50      H        0.04870    0.69400    0.48770    1.000
    C102     C        0.05660    0.57480    0.48350    1.000
    O19      O        0.42610    0.41540    0.37750    1.000
    O20      O        0.54000    0.41470    0.43900    1.000
    O21      O        0.14170    0.36440    0.45460    1.000
    C103     C        0.49750    0.25180    0.03920    1.000
    H51      H        0.49600    0.29660    0.07190    1.000
    C104     C        0.49490    0.16930    0.06260    1.000
    C105     C        0.48670    0.14510    0.13910    1.000
    C106     C        0.48570    0.06530    0.16190    1.000
    C107     C        0.48050    0.04060    0.24120    1.000
    H52      H        0.47760    0.07390    0.28450    1.000
    C108     C        0.48450    0.20850    0.20160    1.000
    C109     C        0.54030    0.23310    0.26520    1.000
    H53      H        0.57980    0.20960    0.26990    1.000
    C110     C        0.54370    0.29510    0.32890    1.000
    H54      H        0.58370    0.31230    0.37330    1.000
    C111     C        0.48400    0.32600    0.31860    1.000
    C112     C        0.42620    0.30470    0.25310    1.000
    H55      H        0.38700    0.32990    0.24700    1.000
    C113     C        0.42490    0.24210    0.19190    1.000
    H56      H        0.38500    0.22500    0.14710    1.000
    C114     C        0.48400    0.39390    0.38470    1.000
    C115     C        0.11900    0.42680    0.46800    1.000
    C116     C        0.02920    0.35430    0.49210    1.000
    H57      H        0.04870    0.30600    0.48770    1.000
    C117     C        0.05660    0.42520    0.48350    1.000
    O22      O        0.57390    0.41540    0.62250    1.000
    O23      O        0.46000    0.41470    0.56100    1.000
    O24      O        0.85830    0.36440    0.54540    1.000
    C118     C        0.50250    0.25180    0.96080    1.000
    H58      H        0.50400    0.29660    0.92810    1.000
    C119     C        0.50510    0.16930    0.93740    1.000
    C120     C        0.51330    0.14510    0.86090    1.000
    C121     C        0.51430    0.06530    0.83810    1.000
    C122     C        0.51950    0.04060    0.75880    1.000
    H59      H        0.52240    0.07390    0.71550    1.000
    C123     C        0.51550    0.20850    0.79840    1.000
    C124     C        0.45970    0.23310    0.73480    1.000
    H60      H        0.42020    0.20960    0.73010    1.000
    C125     C        0.45630    0.29510    0.67110    1.000
    H61      H        0.41630    0.31230    0.62670    1.000
    C126     C        0.51600    0.32600    0.68140    1.000
    C127     C        0.57380    0.30470    0.74690    1.000
    H62      H        0.61300    0.32990    0.75300    1.000
    C128     C        0.57510    0.24210    0.80810    1.000
    H63      H        0.61500    0.22500    0.85290    1.000
    C129     C        0.51600    0.39390    0.61530    1.000
    C130     C        0.88100    0.42680    0.53200    1.000
    C131     C        0.97080    0.35430    0.50790    1.000
    H64      H        0.95130    0.30600    0.51230    1.000
    C132     C        0.94340    0.42520    0.51650    1.000
    Zn3      Zn       0.57332    0.50000    0.53624    1.000
    N9       N        0.66590    0.50000    0.54410    1.000
    N10      N        0.85580    0.50000    0.53920    1.000
    C133     C        0.71840    0.50000    0.60880    1.000
    H65      H        0.71450    0.50000    0.66260    1.000
    C134     C        0.78600    0.50000    0.61750    1.000
    H66      H        0.82270    0.50000    0.67210    1.000
    C135     C        0.79080    0.50000    0.54110    1.000
    C136     C        0.73810    0.50000    0.46750    1.000
    H67      H        0.74250    0.50000    0.41410    1.000
    C137     C        0.67200    0.50000    0.46590    1.000
    H68      H        0.63450    0.50000    0.41210    1.000
    C138     C        0.96890    0.50000    0.50720    1.000
    Zn4      Zn       0.42668    0.50000    0.46376    1.000
    N11      N        0.33410    0.50000    0.45590    1.000
    N12      N        0.14420    0.50000    0.46080    1.000
    C139     C        0.28160    0.50000    0.39120    1.000
    H69      H        0.28550    0.50000    0.33740    1.000
    C140     C        0.21400    0.50000    0.38250    1.000
    H70      H        0.17730    0.50000    0.32790    1.000
    C141     C        0.20920    0.50000    0.45890    1.000
    C142     C        0.26190    0.50000    0.53250    1.000
    H71      H        0.25750    0.50000    0.58590    1.000
    C143     C        0.32800    0.50000    0.53410    1.000
    H72      H        0.36550    0.50000    0.58790    1.000
    C144     C        0.03110    0.50000    0.49280    1.000
    N13      N        0.50000    0.88170    0.00000    1.000
    N14      N        0.50000    0.11830    0.00000    1.000
    N15      N        0.51210    0.00000    0.88930    1.000
    N16      N        0.48790    0.00000    0.11070    1.000
    Mn2      Mn       0.50000    0.00000    0.00000    1.000
