# CIF file generated by openbabel 3.1.0, see https://openbabel.org
data_I
_chemical_name_common 'cg500033b_si_002_clean'
_cell_length_a 12.546
_cell_length_b 15.734
_cell_length_c 26.633
_cell_angle_alpha 90
_cell_angle_beta 90
_cell_angle_gamma 97.869
_space_group_name_H-M_alt 'P 1'
_space_group_name_Hall 'P 1'
loop_
    _symmetry_equiv_pos_as_xyz
    x,y,z
loop_
    _atom_site_label
    _atom_site_type_symbol
    _atom_site_fract_x
    _atom_site_fract_y
    _atom_site_fract_z
    _atom_site_occupancy
    Zn1      Zn       0.30844    0.81744    0.74802    1.000
    Zn2      Zn       0.85217    0.87769    0.25606    1.000
    Zn3      Zn       0.14783    0.62231    0.75606    1.000
    Zn4      Zn       0.69156    0.68256    0.24802    1.000
    H1       H        0.11750    0.27760    0.28620    1.000
    H2       H        0.92310    0.54760    0.73330    1.000
    H3       H        0.19270    0.87280    0.59570    1.000
    H4       H        0.19110    0.07770    0.23790    1.000
    H5       H        0.49980    0.99710    0.42250    1.000
    H6       H        0.04360    0.32380    0.81270    1.000
    H7       H        0.57810    0.21420    0.78810    1.000
    H8       H        0.64790    0.74200    0.89500    1.000
    H9       H        0.47950    0.74170    0.33600    1.000
    H10      H        0.14500    0.45420    0.80690    1.000
    H11      H        0.19700    0.90910    0.51190    1.000
    H12      H        0.63170    0.97470    0.36540    1.000
    H13      H        0.85500    0.04580    0.30690    1.000
    H14      H        0.94670    0.70090    0.85460    1.000
    H15      H        0.10530    0.93690    0.85230    1.000
    H16      H        0.00210    0.82410    0.08820    1.000
    H17      H        0.89470    0.56310    0.35230    1.000
    H18      H        0.70180    0.91810    0.01950    1.000
    H19      H        0.35210    0.75800    0.39500    1.000
    H20      H        0.80890    0.42230    0.73790    1.000
    H21      H        0.50020    0.50290    0.92250    1.000
    H22      H        0.54160    0.89020    0.73310    1.000
    H23      H        0.71680    0.90770    0.10460    1.000
    H24      H        0.30970    0.98390    0.80220    1.000
    H25      H        0.47900    0.82610    0.49660    1.000
    H26      H        0.01700    0.66830    0.50210    1.000
    H27      H        0.69030    0.51610    0.30220    1.000
    H28      H        0.07690    0.95240    0.23330    1.000
    H29      H        0.48050    0.79500    0.58200    1.000
    H30      H        0.80300    0.59090    0.01190    1.000
    H31      H        0.42190    0.28580    0.28810    1.000
    H32      H        0.51950    0.70500    0.08200    1.000
    H33      H        0.41310    0.11590    0.80890    1.000
    H34      H        0.16350    0.75880    0.41650    1.000
    H35      H        0.83650    0.74120    0.91650    1.000
    H36      H        0.98720    0.97730    0.91150    1.000
    H37      H        0.98300    0.83170    0.00210    1.000
    H38      H        0.36830    0.52530    0.86540    1.000
    H39      H        0.52100    0.67390    0.99660    1.000
    H40      H        0.64840    0.01750    0.73830    1.000
    H41      H        0.29820    0.58190    0.51950    1.000
    H42      H        0.45840    0.60980    0.23310    1.000
    H43      H        0.05330    0.79910    0.35460    1.000
    H44      H        0.58690    0.38410    0.30890    1.000
    H45      H        0.95640    0.17620    0.31270    1.000
    H46      H        0.80730    0.62720    0.09570    1.000
    H47      H        0.01280    0.52270    0.41150    1.000
    H48      H        0.35160    0.48250    0.23830    1.000
    H49      H        0.99790    0.67590    0.58820    1.000
    H50      H        0.52050    0.75830    0.83600    1.000
    H51      H        0.28320    0.59230    0.60460    1.000
    H52      H        0.88250    0.22240    0.78620    1.000
    C1       C        0.40750    0.80220    0.38840    1.000
    C2       C        0.95050    0.60300    0.36410    1.000
    C3       C        0.03650    0.81390    0.84589    1.000
    C4       C        0.59250    0.69780    0.88840    1.000
    C5       C        0.84350    0.87770    0.00336    1.000
    C6       C        0.51610    0.70720    0.85390    1.000
    C7       C        0.14820    0.23010    0.27570    1.000
    C8       C        0.08550    0.14420    0.27490    1.000
    C9       C        0.37850    0.99150    0.78836    1.000
    C10      C        0.39250    0.33300    0.27610    1.000
    C11      C        0.07700    0.44660    0.79232    1.000
    C12      C        0.65050    0.84090    0.30670    1.000
    C13      C        0.42220    0.81750    0.56822    1.000
    C14      C        0.41400    0.88050    0.41410    1.000
    C15      C        0.22850    0.60720    0.58416    1.000
    C16      C        0.44050    0.07090    0.79300    1.000
    C17      C        0.49630    0.94520    0.40550    1.000
    C18      C        0.05910    0.65740    0.57471    1.000
    C19      C        0.94660    0.50120    0.74956    1.000
    C20      C        0.51480    0.93650    0.74779    1.000
    C21      C        0.66210    0.66860    0.09847    1.000
    C22      C        0.57790    0.66350    0.01710    1.000
    C23      C        0.11070    0.78690    0.80748    1.000
    C24      C        0.88930    0.71310    0.30748    1.000
    C25      C        0.13870    0.63570    0.60646    1.000
    C26      C        0.54260    0.08230    0.77385    1.000
    C27      C        0.77150    0.89280    0.08416    1.000
    C28      C        0.57890    0.01210    0.75124    1.000
    C29      C        0.93030    0.84820    0.02311    1.000
    C30      C        0.34950    0.65910    0.80670    1.000
    C31      C        0.74800    0.63550    0.07630    1.000
    C32      C        0.60750    0.16700    0.77610    1.000
    C33      C        0.97950    0.92100    0.90000    1.000
    C34      C        0.12530    0.63780    0.66041    1.000
    C35      C        0.95650    0.75730    0.86590    1.000
    C36      C        0.23770    0.60070    0.53362    1.000
    C37      C        0.04350    0.74270    0.36590    1.000
    C38      C        0.94090    0.84260    0.07471    1.000
    C39      C        0.33790    0.83140    0.59847    1.000
    C40      C        0.04950    0.89700    0.86410    1.000
    C41      C        0.02050    0.57900    0.40000    1.000
    C42      C        0.58600    0.61950    0.91410    1.000
    C43      C        0.74640    0.61490    0.02623    1.000
    C44      C        0.12230    0.07350    0.25150    1.000
    C45      C        0.15650    0.62230    0.50336    1.000
    C46      C        0.98310    0.13160    0.29615    1.000
    C47      C        0.43130    0.64310    0.84448    1.000
    C48      C        0.96350    0.68610    0.34589    1.000
    C49      C        0.57420    0.93180    0.37090    1.000
    C50      C        0.42210    0.83650    0.51710    1.000
    C51      C        0.05340    0.99880    0.24956    1.000
    C52      C        0.48390    0.79280    0.35390    1.000
    C53      C        0.45740    0.41770    0.27385    1.000
    C54      C        0.87770    0.42650    0.75150    1.000
    C55      C        0.92300    0.05340    0.29232    1.000
    C56      C        0.55950    0.42910    0.29300    1.000
    C57      C        0.09890    0.63670    0.41800    1.000
    C58      C        0.86130    0.86430    0.10646    1.000
    C59      C        0.33810    0.87020    0.49802    1.000
    C60      C        0.66190    0.62980    0.99802    1.000
    C61      C        0.48520    0.56350    0.24779    1.000
    C62      C        0.91450    0.35580    0.77490    1.000
    C63      C        0.88950    0.78140    0.90250    1.000
    C64      C        0.25200    0.86450    0.57630    1.000
    C65      C        0.90110    0.86330    0.91800    1.000
    C66      C        0.11050    0.71860    0.40250    1.000
    C67      C        0.62150    0.50850    0.28836    1.000
    C68      C        0.85180    0.26990    0.77570    1.000
    C69      C        0.25360    0.88510    0.52623    1.000
    C70      C        0.42110    0.48790    0.25124    1.000
    C71      C        0.76230    0.89930    0.03362    1.000
    C72      C        0.65900    0.68530    0.15326    1.000
    C73      C        0.50370    0.55480    0.90550    1.000
    C74      C        0.06970    0.65180    0.52311    1.000
    C75      C        0.56870    0.85690    0.34448    1.000
    C76      C        0.57780    0.68250    0.06822    1.000
    C77      C        0.42580    0.56820    0.87090    1.000
    C78      C        0.34100    0.81470    0.65326    1.000
    C79      C        0.87470    0.86220    0.16041    1.000
    C80      C        0.01690    0.36840    0.79615    1.000
    N1       N        0.95520    0.98720    0.26906    1.000
    N2       N        0.29450    0.32500    0.26130    1.000
    N3       N        0.41280    0.92580    0.76504    1.000
    N4       N        0.58720    0.57420    0.26504    1.000
    N5       N        0.70550    0.17500    0.76130    1.000
    N6       N        0.04480    0.51280    0.76906    1.000
    N7       N        0.24560    0.23730    0.26160    1.000
    N8       N        0.75440    0.26270    0.76160    1.000
    O1       O        0.95810    0.84310    0.18011    1.000
    O2       O        0.91430    0.78660    0.28996    1.000
    O3       O        0.58050    0.71010    0.17282    1.000
    O4       O        0.41950    0.78990    0.67282    1.000
    O5       O        0.25910    0.83010    0.67941    1.000
    O6       O        0.73310    0.89470    0.30245    1.000
    O7       O        0.08570    0.71340    0.78996    1.000
    O8       O        0.80900    0.66140    0.29472    1.000
    O9       O        0.79680    0.88130    0.18825    1.000
    O10      O        0.26690    0.60530    0.80245    1.000
    O11      O        0.17370    0.61160    0.45191    1.000
    O12      O        0.82630    0.88840    0.95191    1.000
    O13      O        0.66910    0.60530    0.94730    1.000
    O14      O        0.36890    0.72560    0.78169    1.000
    O15      O        0.20320    0.61870    0.68825    1.000
    O16      O        0.63110    0.77440    0.28169    1.000
    O17      O        0.33090    0.89470    0.44730    1.000
    O18      O        0.74090    0.66990    0.17941    1.000
    O19      O        0.04190    0.65690    0.68011    1.000
    O20      O        0.19100    0.83860    0.79472    1.000
    Zn5      Zn       0.14783    0.12231    0.74394    1.000
    Zn6      Zn       0.30844    0.31744    0.75198    1.000
    Zn7      Zn       0.69156    0.18256    0.25198    1.000
    Zn8      Zn       0.85217    0.37769    0.24394    1.000
    H53      H        0.36830    0.02530    0.63460    1.000
    H54      H        0.88250    0.72240    0.71380    1.000
    H55      H        0.98720    0.47730    0.58850    1.000
    H56      H        0.50020    0.00290    0.57750    1.000
    H57      H        0.45840    0.10980    0.26690    1.000
    H58      H        0.80730    0.12720    0.40430    1.000
    H59      H        0.19700    0.40910    0.98810    1.000
    H60      H        0.01280    0.02270    0.08850    1.000
    H61      H        0.98300    0.33170    0.49790    1.000
    H62      H        0.57810    0.71420    0.71190    1.000
    H63      H        0.28320    0.09230    0.89540    1.000
    H64      H        0.10530    0.43690    0.64770    1.000
    H65      H        0.47900    0.32610    0.00340    1.000
    H66      H        0.52050    0.25830    0.66400    1.000
    H67      H        0.80300    0.09090    0.48810    1.000
    H68      H        0.49980    0.49710    0.07750    1.000
    H69      H        0.52100    0.17390    0.50340    1.000
    H70      H        0.51950    0.20500    0.41800    1.000
    H71      H        0.35160    0.98250    0.26170    1.000
    H72      H        0.83650    0.24120    0.58350    1.000
    H73      H        0.16350    0.25880    0.08350    1.000
    H74      H        0.42190    0.78580    0.21190    1.000
    H75      H        0.48050    0.29500    0.91800    1.000
    H76      H        0.19270    0.37280    0.90430    1.000
    H77      H        0.99790    0.17590    0.91180    1.000
    H78      H        0.58690    0.88410    0.19110    1.000
    H79      H        0.30970    0.48390    0.69780    1.000
    H80      H        0.64790    0.24200    0.60500    1.000
    H81      H        0.92310    0.04760    0.76670    1.000
    H82      H        0.07690    0.45240    0.26670    1.000
    H83      H        0.71680    0.40770    0.39540    1.000
    H84      H        0.70180    0.41810    0.48050    1.000
    H85      H        0.94670    0.20090    0.64540    1.000
    H86      H        0.11750    0.77760    0.21380    1.000
    H87      H        0.95640    0.67620    0.18730    1.000
    H88      H        0.00210    0.32410    0.41180    1.000
    H89      H        0.89470    0.06310    0.14770    1.000
    H90      H        0.05330    0.29910    0.14540    1.000
    H91      H        0.01700    0.16830    0.99790    1.000
    H92      H        0.04360    0.82380    0.68730    1.000
    H93      H        0.80890    0.92230    0.76210    1.000
    H94      H        0.85500    0.54580    0.19310    1.000
    H95      H        0.63170    0.47470    0.13460    1.000
    H96      H        0.69030    0.01610    0.19780    1.000
    H97      H        0.64840    0.51750    0.76170    1.000
    H98      H        0.41310    0.61590    0.69110    1.000
    H99      H        0.54160    0.39020    0.76690    1.000
    H100     H        0.29820    0.08190    0.98050    1.000
    H101     H        0.47950    0.24170    0.16400    1.000
    H102     H        0.14500    0.95420    0.69310    1.000
    H103     H        0.19110    0.57770    0.26210    1.000
    H104     H        0.35210    0.25800    0.10500    1.000
    C81      C        0.11050    0.21860    0.09750    1.000
    C82      C        0.55950    0.92910    0.20700    1.000
    C83      C        0.06970    0.15180    0.97689    1.000
    C84      C        0.57420    0.43180    0.12910    1.000
    C85      C        0.22850    0.10720    0.91584    1.000
    C86      C        0.49630    0.44520    0.09450    1.000
    C87      C        0.74640    0.11490    0.47377    1.000
    C88      C        0.92300    0.55340    0.20768    1.000
    C89      C        0.77150    0.39280    0.41584    1.000
    C90      C        0.90110    0.36330    0.58200    1.000
    C91      C        0.97950    0.42100    0.60000    1.000
    C92      C        0.13870    0.13570    0.89354    1.000
    C93      C        0.11070    0.28690    0.69252    1.000
    C94      C        0.57890    0.51210    0.74876    1.000
    C95      C        0.15650    0.12230    0.99664    1.000
    C96      C        0.02050    0.07900    0.10000    1.000
    C97      C        0.12530    0.13780    0.83959    1.000
    C98      C        0.76230    0.39930    0.46638    1.000
    C99      C        0.62150    0.00850    0.21164    1.000
    C100     C        0.84350    0.37770    0.49664    1.000
    C101     C        0.23770    0.10070    0.96638    1.000
    C102     C        0.07700    0.94660    0.70768    1.000
    C103     C        0.60750    0.66700    0.72390    1.000
    C104     C        0.34950    0.15910    0.69330    1.000
    C105     C        0.98310    0.63160    0.20385    1.000
    C106     C        0.43130    0.14310    0.65552    1.000
    C107     C        0.25360    0.38510    0.97377    1.000
    C108     C        0.87770    0.92650    0.74850    1.000
    C109     C        0.51610    0.20720    0.64610    1.000
    C110     C        0.66210    0.16860    0.40153    1.000
    C111     C        0.05910    0.15740    0.92529    1.000
    C112     C        0.48520    0.06350    0.25221    1.000
    C113     C        0.04350    0.24270    0.13410    1.000
    C114     C        0.96350    0.18610    0.15411    1.000
    C115     C        0.65900    0.18530    0.34674    1.000
    C116     C        0.85180    0.76990    0.72430    1.000
    C117     C        0.87470    0.36220    0.33959    1.000
    C118     C        0.48390    0.29280    0.14610    1.000
    C119     C        0.88950    0.28140    0.59750    1.000
    C120     C        0.08550    0.64420    0.22510    1.000
    C121     C        0.41400    0.38050    0.08590    1.000
    C122     C        0.54260    0.58230    0.72615    1.000
    C123     C        0.59250    0.19780    0.61160    1.000
    C124     C        0.65050    0.34090    0.19330    1.000
    C125     C        0.12230    0.57350    0.24850    1.000
    C126     C        0.94090    0.34260    0.42529    1.000
    C127     C        0.74800    0.13550    0.42370    1.000
    C128     C        0.95050    0.10300    0.13590    1.000
    C129     C        0.57780    0.18250    0.43178    1.000
    C130     C        0.95650    0.25730    0.63410    1.000
    C131     C        0.58600    0.11950    0.58590    1.000
    C132     C        0.44050    0.57090    0.70700    1.000
    C133     C        0.86130    0.36430    0.39354    1.000
    C134     C        0.88930    0.21310    0.19252    1.000
    C135     C        0.94660    0.00120    0.75044    1.000
    C136     C        0.42220    0.31750    0.93178    1.000
    C137     C        0.91450    0.85580    0.72510    1.000
    C138     C        0.14820    0.73010    0.22430    1.000
    C139     C        0.01690    0.86840    0.70385    1.000
    C140     C        0.45740    0.91770    0.22615    1.000
    C141     C        0.03650    0.31390    0.65411    1.000
    C142     C        0.33810    0.37020    0.00198    1.000
    C143     C        0.93030    0.34820    0.47689    1.000
    C144     C        0.42210    0.33650    0.98290    1.000
    C145     C        0.56870    0.35690    0.15552    1.000
    C146     C        0.50370    0.05480    0.59450    1.000
    C147     C        0.40750    0.30220    0.11160    1.000
    C148     C        0.37850    0.49150    0.71164    1.000
    C149     C        0.42110    0.98790    0.24876    1.000
    C150     C        0.04950    0.39700    0.63590    1.000
    C151     C        0.66190    0.12980    0.50198    1.000
    C152     C        0.09890    0.13670    0.08200    1.000
    C153     C        0.51480    0.43650    0.75221    1.000
    C154     C        0.39250    0.83300    0.22390    1.000
    C155     C        0.05340    0.49880    0.25044    1.000
    C156     C        0.57790    0.16350    0.48290    1.000
    C157     C        0.25200    0.36450    0.92370    1.000
    C158     C        0.33790    0.33140    0.90153    1.000
    C159     C        0.42580    0.06820    0.62910    1.000
    C160     C        0.34100    0.31470    0.84674    1.000
    N9       N        0.58720    0.07420    0.23496    1.000
    N10      N        0.75440    0.76270    0.73840    1.000
    N11      N        0.41280    0.42580    0.73496    1.000
    N12      N        0.70550    0.67500    0.73870    1.000
    N13      N        0.24560    0.73730    0.23840    1.000
    N14      N        0.95520    0.48720    0.23094    1.000
    N15      N        0.04480    0.01280    0.73094    1.000
    N16      N        0.29450    0.82500    0.23870    1.000
    O21      O        0.25910    0.33010    0.82059    1.000
    O22      O        0.66910    0.10530    0.55270    1.000
    O23      O        0.79680    0.38130    0.31175    1.000
    O24      O        0.26690    0.10530    0.69755    1.000
    O25      O        0.91430    0.28660    0.21004    1.000
    O26      O        0.19100    0.33860    0.70528    1.000
    O27      O        0.63110    0.27440    0.21831    1.000
    O28      O        0.82630    0.38840    0.54809    1.000
    O29      O        0.36890    0.22560    0.71831    1.000
    O30      O        0.95810    0.34310    0.31989    1.000
    O31      O        0.33090    0.39470    0.05270    1.000
    O32      O        0.80900    0.16140    0.20528    1.000
    O33      O        0.41950    0.28990    0.82718    1.000
    O34      O        0.58050    0.21010    0.32718    1.000
    O35      O        0.04190    0.15690    0.81989    1.000
    O36      O        0.74090    0.16990    0.32059    1.000
    O37      O        0.08570    0.21340    0.71004    1.000
    O38      O        0.20320    0.11870    0.81175    1.000
    O39      O        0.73310    0.39470    0.19755    1.000
    O40      O        0.17370    0.11160    0.04809    1.000
