# CIF file generated by openbabel 3.1.0, see https://openbabel.org
data_I
_chemical_name_common 'AKUHOD03_clean'
_cell_length_a 10.5269
_cell_length_b 10.5269
_cell_length_c 10.7521
_cell_angle_alpha 101.58
_cell_angle_beta 117.555
_cell_angle_gamma 108.813
_space_group_name_H-M_alt 'P 1'
_space_group_name_Hall 'P 1'
loop_
    _symmetry_equiv_pos_as_xyz
    x,y,z
loop_
    _atom_site_label
    _atom_site_type_symbol
    _atom_site_fract_x
    _atom_site_fract_y
    _atom_site_fract_z
    _atom_site_occupancy
    Gd1      Gd       0.95141    0.39144    0.05111    1.000
    Gd2      Gd       0.26045    0.82475    0.78412    1.000
    Gd3      Gd       0.15967    0.09970    0.55111    1.000
    Gd4      Gd       0.45937    0.52367    0.28412    1.000
    H1       H        0.90300    0.71400    0.92500    1.000
    H2       H        0.32000    0.91900    0.39300    1.000
    H3       H        0.48600    0.86800    0.47800    1.000
    H4       H        0.94900    0.24000    0.77700    1.000
    H5       H        0.67200    0.85600    0.86800    1.000
    H6       H        0.80700    0.92000    0.98900    1.000
    H7       H        0.35000    0.05400    0.03000    1.000
    H8       H        0.32400    0.98400    0.04000    1.000
    H9       H        0.71100    0.02200    0.42500    1.000
    H10      H        0.97400    0.07300    0.89300    1.000
    H11      H        0.11000    0.99200    0.97800    1.000
    H12      H        0.03700    0.82800    0.27700    1.000
    H13      H        0.51200    0.19600    0.36800    1.000
    H14      H        0.56900    0.18200    0.48900    1.000
    H15      H        0.47600    0.68000    0.53000    1.000
    H16      H        0.55600    0.71600    0.54000    1.000
    C1       C        0.72910    0.53140    0.83490    1.000
    C2       C        0.87750    0.66660    0.87970    1.000
    C3       C        0.02240    0.64450    0.90570    1.000
    C4       C        0.20800    0.68680    0.28660    1.000
    C5       C        0.34220    0.84020    0.41800    1.000
    C6       C        0.31110    0.84220    0.54050    1.000
    C7       C        0.60510    0.80170    0.99540    1.000
    C8       C        0.69330    0.90030    0.94340    1.000
    C9       C        0.66690    0.03230    0.92960    1.000
    C10      C        0.80350    0.10580    0.33490    1.000
    C11      C        0.71310    0.00220    0.37970    1.000
    C12      C        0.76120    0.88330    0.40570    1.000
    C13      C        0.09980    0.07860    0.78660    1.000
    C14      C        0.07780    0.07580    0.91800    1.000
    C15      C        0.19830    0.22940    0.04050    1.000
    C16      C        0.69370    0.39030    0.49540    1.000
    C17      C        0.54310    0.25010    0.44340    1.000
    C18      C        0.39730    0.26270    0.42960    1.000
    O1       O        0.74360    0.43510    0.89110    1.000
    O2       O        0.59290    0.51840    0.73690    1.000
    O3       O        0.05180    0.55180    0.95180    1.000
    O4       O        0.10900    0.72870    0.87110    1.000
    O5       O        0.25070    0.59030    0.25460    1.000
    O6       O        0.06420    0.65610    0.22210    1.000
    O7       O        0.25010    0.91600    0.57330    1.000
    O8       O        0.34140    0.75460    0.60440    1.000
    O9       O        0.86980    0.25870    0.78190    1.000
    O10      O        0.46040    0.76060    0.93780    1.000
    O11      O        0.68450    0.76030    0.08960    1.000
    O12      O        0.52530    0.01820    0.87630    1.000
    O13      O        0.78170    0.14370    0.96200    1.000
    O14      O        0.39280    0.00910    0.04950    1.000
    O15      O        0.95600    0.14750    0.39110    1.000
    O16      O        0.71850    0.14400    0.23690    1.000
    O17      O        0.90000    0.90000    0.45180    1.000
    O18      O        0.64240    0.76210    0.37110    1.000
    O19      O        0.16430    0.00390    0.75460    1.000
    O20      O        0.06600    0.15790    0.72210    1.000
    O21      O        0.15730    0.32320    0.07330    1.000
    O22      O        0.34980    0.26300    0.10440    1.000
    O23      O        0.02320    0.91210    0.28190    1.000
    O24      O        0.67720    0.47740    0.43780    1.000
    O25      O        0.82930    0.40510    0.58960    1.000
    O26      O        0.35810    0.35100    0.37630    1.000
    O27      O        0.31830    0.18030    0.46200    1.000
    O28      O        0.54040    0.65670    0.54950    1.000
