# CIF file generated by openbabel 3.1.0, see https://openbabel.org
data_I
_chemical_name_common 'image0'
_cell_length_a 4.925
_cell_length_b 22.0972
_cell_length_c 12.9038
_cell_angle_alpha 90
_cell_angle_beta 99.245
_cell_angle_gamma 90
_space_group_name_H-M_alt 'P 1'
_space_group_name_Hall 'P 1'
loop_
    _symmetry_equiv_pos_as_xyz
    x,y,z
loop_
    _atom_site_label
    _atom_site_type_symbol
    _atom_site_fract_x
    _atom_site_fract_y
    _atom_site_fract_z
    _atom_site_occupancy
    C1       C        0.59050    0.77570    0.05080    1.000
    H1       H        0.79100    0.77200    0.05920    1.000
    H2       H        0.54000    0.81500    0.01800    1.000
    C2       C        0.12820    0.48870    0.23180    1.000
    H3       H        0.02700    0.50270    0.28400    1.000
    H4       H        0.30200    0.47430    0.26600    1.000
    C3       C        0.97390    0.43810    0.17040    1.000
    C4       C        0.50450    0.77440    0.15740    1.000
    O1       O        0.53330    0.65530    0.01550    1.000
    O2       O        0.12740    0.72460    0.95310    1.000
    O3       O        0.53500    0.72210    0.85810    1.000
    O4       O        0.89400    0.57655    0.10550    1.000
    O5       O        0.31380    0.52450    0.05400    1.000
    O6       O        0.36390    0.59580    0.21040    1.000
    O7       O        0.72080    0.43330    0.16600    1.000
    O8       O        0.12010    0.40200    0.12260    1.000
    O9       O        0.43190    0.82420    0.19370    1.000
    O10      O        0.50570    0.72590    0.20730    1.000
    O11      O        0.98050    0.66050    0.28720    1.000
    O12      O        0.99600    0.70240    0.19620    1.000
    O13      O        0.84600    0.61960    0.33500    1.000
    P1       P        0.43490    0.71574    0.96464    1.000
    P2       P        0.17950    0.55041    0.14435    1.000
    Zn1      Zn       0.67299    0.64296    0.17289    1.000
    Zn2      Zn       0.59232    0.56676    0.96815    1.000
    Zn3      Zn       0.88310    0.68660    0.84028    1.000
    C5       C        0.90950    0.27570    0.44920    1.000
    H5       H        0.70900    0.27200    0.44080    1.000
    H6       H        0.96000    0.31500    0.48200    1.000
    C6       C        0.37180    0.98870    0.26820    1.000
    H7       H        0.47300    0.00270    0.21600    1.000
    H8       H        0.19800    0.97430    0.23400    1.000
    C7       C        0.52610    0.93810    0.32960    1.000
    C8       C        0.99550    0.27440    0.34260    1.000
    O14      O        0.96670    0.15530    0.48450    1.000
    O15      O        0.37260    0.22460    0.54690    1.000
    O16      O        0.96500    0.22210    0.64190    1.000
    O17      O        0.60600    0.07655    0.39450    1.000
    O18      O        0.18620    0.02450    0.44600    1.000
    O19      O        0.13610    0.09580    0.28960    1.000
    O20      O        0.77920    0.93330    0.33400    1.000
    O21      O        0.37990    0.90200    0.37740    1.000
    O22      O        0.06810    0.32420    0.30630    1.000
    O23      O        0.99430    0.22590    0.29270    1.000
    O24      O        0.51950    0.16050    0.21280    1.000
    O25      O        0.50400    0.20240    0.30380    1.000
    O26      O        0.65400    0.11960    0.16500    1.000
    P3       P        0.06510    0.21574    0.53536    1.000
    P4       P        0.32050    0.05041    0.35565    1.000
    Zn4      Zn       0.82701    0.14296    0.32711    1.000
    Zn5      Zn       0.90768    0.06676    0.53185    1.000
    Zn6      Zn       0.61690    0.18660    0.65972    1.000
    C9       C        0.40950    0.22430    0.94920    1.000
    H9       H        0.20900    0.22800    0.94080    1.000
    H10      H        0.46000    0.18500    0.98200    1.000
    C10      C        0.87180    0.51130    0.76820    1.000
    H11      H        0.97300    0.49730    0.71600    1.000
    H12      H        0.69800    0.52570    0.73400    1.000
    C11      C        0.02610    0.56190    0.82960    1.000
    C12      C        0.49550    0.22560    0.84260    1.000
    O27      O        0.46670    0.34470    0.98450    1.000
    O28      O        0.87260    0.27540    0.04690    1.000
    O29      O        0.46500    0.27790    0.14190    1.000
    O30      O        0.10600    0.42345    0.89450    1.000
    O31      O        0.68620    0.47550    0.94600    1.000
    O32      O        0.63610    0.40420    0.78960    1.000
    O33      O        0.27920    0.56670    0.83400    1.000
    O34      O        0.87990    0.59800    0.87740    1.000
    O35      O        0.56810    0.17580    0.80630    1.000
    O36      O        0.49430    0.27410    0.79270    1.000
    O37      O        0.01950    0.33950    0.71280    1.000
    O38      O        0.00400    0.29760    0.80380    1.000
    O39      O        0.15400    0.38040    0.66500    1.000
    P5       P        0.56510    0.28426    0.03536    1.000
    P6       P        0.82050    0.44959    0.85565    1.000
    Zn7      Zn       0.32701    0.35704    0.82711    1.000
    Zn8      Zn       0.40768    0.43324    0.03185    1.000
    Zn9      Zn       0.11690    0.31340    0.15972    1.000
    C13      C        0.09050    0.72430    0.55080    1.000
    H13      H        0.29100    0.72800    0.55920    1.000
    H14      H        0.04000    0.68500    0.51800    1.000
    C14      C        0.62820    0.01130    0.73180    1.000
    H15      H        0.52700    0.99730    0.78400    1.000
    H16      H        0.80200    0.02570    0.76600    1.000
    C15      C        0.47390    0.06190    0.67040    1.000
    C16      C        0.00450    0.72560    0.65740    1.000
    O40      O        0.03330    0.84470    0.51550    1.000
    O41      O        0.62740    0.77540    0.45310    1.000
    O42      O        0.03500    0.77790    0.35810    1.000
    O43      O        0.39400    0.92345    0.60550    1.000
    O44      O        0.81380    0.97550    0.55400    1.000
    O45      O        0.86390    0.90420    0.71040    1.000
    O46      O        0.22080    0.06670    0.66600    1.000
    O47      O        0.62010    0.09800    0.62260    1.000
    O48      O        0.93190    0.67580    0.69370    1.000
    O49      O        0.00570    0.77410    0.70730    1.000
    O50      O        0.48050    0.83950    0.78720    1.000
    O51      O        0.49600    0.79760    0.69620    1.000
    O52      O        0.34600    0.88040    0.83500    1.000
    P7       P        0.93490    0.78426    0.46464    1.000
    P8       P        0.67950    0.94959    0.64435    1.000
    Zn10     Zn       0.17299    0.85704    0.67289    1.000
    Zn11     Zn       0.09232    0.93324    0.46815    1.000
    Zn12     Zn       0.38310    0.81340    0.34028    1.000
