# CIF file generated by openbabel 3.1.0, see https://openbabel.org
data_I
_chemical_name_common 'MIVPIR_clean'
_cell_length_a 7.6026
_cell_length_b 9.7798
_cell_length_c 14.6423
_cell_angle_alpha 90
_cell_angle_beta 98.075
_cell_angle_gamma 90
_space_group_name_H-M_alt 'P 1'
_space_group_name_Hall 'P 1'
loop_
    _symmetry_equiv_pos_as_xyz
    x,y,z
loop_
    _atom_site_label
    _atom_site_type_symbol
    _atom_site_fract_x
    _atom_site_fract_y
    _atom_site_fract_z
    _atom_site_occupancy
    Yb1      Yb       0.84802    0.95438    0.63835    1.000
    Yb2      Yb       0.65198    0.45438    0.86165    1.000
    Yb3      Yb       0.15198    0.04562    0.36165    1.000
    Yb4      Yb       0.34802    0.54562    0.13835    1.000
    H1       H        0.82870    0.38500    0.63730    1.000
    H2       H        0.61420    0.69820    0.48490    1.000
    H3       H        0.80100    0.38840    0.36130    1.000
    H4       H        0.67130    0.88500    0.86270    1.000
    H5       H        0.88580    0.19820    0.01510    1.000
    H6       H        0.69900    0.88840    0.13870    1.000
    H7       H        0.17130    0.61500    0.36270    1.000
    H8       H        0.38580    0.30180    0.51510    1.000
    H9       H        0.19900    0.61160    0.63870    1.000
    H10      H        0.32870    0.11500    0.13730    1.000
    H11      H        0.11420    0.80180    0.98490    1.000
    H12      H        0.30100    0.11160    0.86130    1.000
    C1       C        0.69350    0.63810    0.65880    1.000
    C2       C        0.72170    0.55760    0.57560    1.000
    C3       C        0.54350    0.96810    0.46020    1.000
    C4       C        0.79820    0.42800    0.58070    1.000
    C5       C        0.66890    0.61290    0.48830    1.000
    C6       C        0.91320    0.22490    0.50090    1.000
    C7       C        0.82820    0.36370    0.49910    1.000
    C8       C        0.77620    0.42980    0.41520    1.000
    C9       C        0.80650    0.13810    0.84120    1.000
    C10      C        0.77830    0.05760    0.92440    1.000
    C11      C        0.95650    0.46810    0.03980    1.000
    C12      C        0.70180    0.92800    0.91930    1.000
    C13      C        0.83110    0.11290    0.01170    1.000
    C14      C        0.58680    0.72490    0.99910    1.000
    C15      C        0.67180    0.86370    0.00090    1.000
    C16      C        0.72380    0.92980    0.08480    1.000
    C17      C        0.30650    0.36190    0.34120    1.000
    C18      C        0.27830    0.44240    0.42440    1.000
    C19      C        0.45650    0.03190    0.53980    1.000
    C20      C        0.20180    0.57200    0.41930    1.000
    C21      C        0.33110    0.38710    0.51170    1.000
    C22      C        0.08680    0.77510    0.49910    1.000
    C23      C        0.17180    0.63630    0.50090    1.000
    C24      C        0.22380    0.57020    0.58480    1.000
    C25      C        0.19350    0.86190    0.15880    1.000
    C26      C        0.22170    0.94240    0.07560    1.000
    C27      C        0.04350    0.53190    0.96020    1.000
    C28      C        0.29820    0.07200    0.08070    1.000
    C29      C        0.16890    0.88710    0.98830    1.000
    C30      C        0.41320    0.27510    0.00090    1.000
    C31      C        0.32820    0.13630    0.99910    1.000
    C32      C        0.27620    0.07020    0.91520    1.000
    N1       N        0.69140    0.55160    0.40900    1.000
    N2       N        0.80860    0.05160    0.09100    1.000
    N3       N        0.30860    0.44840    0.59100    1.000
    N4       N        0.19140    0.94840    0.90900    1.000
    O1       O        0.66900    0.76640    0.64779    1.000
    O2       O        0.70390    0.93510    0.47910    1.000
    O3       O        0.69590    0.57870    0.73450    1.000
    O4       O        0.90410    0.15200    0.57070    1.000
    O5       O        0.98560    0.19070    0.43250    1.000
    O6       O        0.44700    0.95560    0.38400    1.000
    O7       O        0.83100    0.26640    0.85221    1.000
    O8       O        0.79610    0.43510    0.02090    1.000
    O9       O        0.80410    0.07870    0.76550    1.000
    O10      O        0.59590    0.65200    0.92930    1.000
    O11      O        0.51440    0.69070    0.06750    1.000
    O12      O        0.05300    0.45560    0.11600    1.000
    O13      O        0.33100    0.23360    0.35221    1.000
    O14      O        0.29610    0.06490    0.52090    1.000
    O15      O        0.30410    0.42130    0.26550    1.000
    O16      O        0.09590    0.84800    0.42930    1.000
    O17      O        0.01440    0.80930    0.56750    1.000
    O18      O        0.55300    0.04440    0.61600    1.000
    O19      O        0.16900    0.73360    0.14779    1.000
    O20      O        0.20390    0.56490    0.97910    1.000
    O21      O        0.19590    0.92130    0.23450    1.000
    O22      O        0.40410    0.34800    0.07070    1.000
    O23      O        0.48560    0.30930    0.93250    1.000
    O24      O        0.94700    0.54440    0.88400    1.000
