# CIF file generated by openbabel 3.1.0, see https://openbabel.org
data_I
_chemical_name_common 'cm1008587_si_003_clean'
_cell_length_a 6.889
_cell_length_b 11.1093
_cell_length_c 11.1093
_cell_angle_alpha 119.604
_cell_angle_beta 106.346
_cell_angle_gamma 73.654
_space_group_name_H-M_alt 'P 1'
_space_group_name_Hall 'P 1'
loop_
    _symmetry_equiv_pos_as_xyz
    x,y,z
loop_
    _atom_site_label
    _atom_site_type_symbol
    _atom_site_fract_x
    _atom_site_fract_y
    _atom_site_fract_z
    _atom_site_occupancy
    Fe1      Fe       0.00000    0.00000    0.00000    1.000
    Fe2      Fe       0.50000    0.00000    0.00000    1.000
    H1       H        0.21860    0.59910    0.95830    1.000
    H2       H        0.65620    0.60880    0.01700    1.000
    H3       H        0.15620    0.98300    0.39120    1.000
    H4       H        0.71860    0.04170    0.40090    1.000
    H5       H        0.78140    0.40090    0.04170    1.000
    H6       H        0.34380    0.39120    0.98300    1.000
    H7       H        0.84380    0.01700    0.60880    1.000
    H8       H        0.28140    0.95830    0.59910    1.000
    C1       C        0.79950    0.56350    0.00990    1.000
    C2       C        0.20050    0.43650    0.99010    1.000
    C3       C        0.92700    0.62120    0.98560    1.000
    C4       C        0.65130    0.97020    0.75120    1.000
    C5       C        0.29950    0.99010    0.43650    1.000
    C6       C        0.70050    0.00990    0.56350    1.000
    C7       C        0.07300    0.37880    0.01440    1.000
    C8       C        0.15130    0.24880    0.02980    1.000
    C9       C        0.84870    0.75120    0.97020    1.000
    C10      C        0.12750    0.55770    0.97570    1.000
    C11      C        0.57300    0.98560    0.62120    1.000
    C12      C        0.37250    0.97570    0.55770    1.000
    C13      C        0.34870    0.02980    0.24880    1.000
    C14      C        0.62750    0.02430    0.44230    1.000
    C15      C        0.42700    0.01440    0.37880    1.000
    C16      C        0.87250    0.44230    0.02430    1.000
    O1       O        0.96720    0.80520    0.94860    1.000
    O2       O        0.83750    0.97860    0.80960    1.000
    O3       O        0.16250    0.02140    0.19040    1.000
    O4       O        0.25000    0.90920    0.90920    1.000
    O5       O        0.66250    0.80960    0.97860    1.000
    O6       O        0.53280    0.94860    0.80520    1.000
    O7       O        0.46720    0.05140    0.19480    1.000
    O8       O        0.75000    0.09080    0.09080    1.000
    O9       O        0.03280    0.19480    0.05140    1.000
    O10      O        0.33750    0.19040    0.02140    1.000
