# CIF file generated by openbabel 3.1.0, see https://openbabel.org
data_I
_chemical_name_common 'image0'
_cell_length_a 17.2471
_cell_length_b 18.932
_cell_length_c 21.34
_cell_angle_alpha 88.588
_cell_angle_beta 73.431
_cell_angle_gamma 66.759
_space_group_name_H-M_alt 'P 1'
_space_group_name_Hall 'P 1'
loop_
    _symmetry_equiv_pos_as_xyz
    x,y,z
loop_
    _atom_site_label
    _atom_site_type_symbol
    _atom_site_fract_x
    _atom_site_fract_y
    _atom_site_fract_z
    _atom_site_occupancy
    O1       O        0.45150    0.91430    0.52240    1.000
    O2       O        0.50990    0.98710    0.40280    1.000
    O3       O        0.37210    0.07970    0.52620    1.000
    C1       C        0.40150    0.88730    0.50780    1.000
    Zn1      Zn       0.41288    0.96403    0.39277    1.000
    N1       N        0.54450    0.01770    0.35260    1.000
    C2       C        0.37120    0.83490    0.55380    1.000
    O4       O        0.37970    0.89850    0.45410    1.000
    N2       N        0.33920    0.97680    0.33270    1.000
    O5       O        0.31150    0.05990    0.44960    1.000
    O6       O        0.51270    0.03170    0.30330    1.000
    O7       O        0.59490    0.05160    0.35840    1.000
    C3       C        0.31860    0.80240    0.53770    1.000
    C4       C        0.39970    0.81610    0.60880    1.000
    C5       C        0.29940    0.74920    0.57840    1.000
    H1       H        0.29790    0.81650    0.50120    1.000
    C6       C        0.37280    0.76610    0.64970    1.000
    H2       H        0.43550    0.83800    0.61790    1.000
    C7       C        0.32060    0.73130    0.63630    1.000
    H3       H        0.26970    0.72330    0.56600    1.000
    H4       H        0.39180    0.75420    0.68690    1.000
    C8       C        0.29910    0.67410    0.67060    1.000
    C9       C        0.28430    0.62000    0.69840    1.000
    C10      C        0.26820    0.55920    0.72510    1.000
    C11      C        0.26970    0.54010    0.78840    1.000
    C12      C        0.24320    0.51590    0.68820    1.000
    C13      C        0.28620    0.58270    0.83790    1.000
    C14      C        0.24290    0.48260    0.81510    1.000
    C15      C        0.24430    0.52370    0.61590    1.000
    C16      C        0.21950    0.45670    0.71410    1.000
    C17      C        0.35930    0.52110    0.85780    1.000
    C18      C        0.20450    0.61030    0.89630    1.000
    H5       H        0.30180    0.62510    0.81920    1.000
    C19      C        0.24400    0.47390    0.88820    1.000
    C20      C        0.21840    0.43880    0.77810    1.000
    C21      C        0.30780    0.44240    0.58130    1.000
    C22      C        0.15590    0.53110    0.61250    1.000
    H6       H        0.26060    0.56610    0.59820    1.000
    C23      C        0.19970    0.41250    0.66580    1.000
    C24      C        0.33950    0.45940    0.88450    1.000
    C25      C        0.44330    0.51950    0.85120    1.000
    C26      C        0.18430    0.54960    0.92410    1.000
    C27      C        0.15520    0.68540    0.92640    1.000
    H7       H        0.22900    0.43110    0.90680    1.000
    C28      C        0.20090    0.37560    0.80340    1.000
    C29      C        0.28370    0.38340    0.60770    1.000
    C30      C        0.38350    0.42410    0.52700    1.000
    C31      C        0.13320    0.47210    0.64070    1.000
    C32      C        0.10030    0.59260    0.58690    1.000
    H8       H        0.18220    0.37130    0.68470    1.000
    C33      C        0.39580    0.39810    0.90920    1.000
    C34      C        0.49800    0.45880    0.87750    1.000
    H9       H        0.45960    0.55840    0.83220    1.000
    C35      C        0.10930    0.56510    0.97840    1.000
    C36      C        0.07660    0.70510    0.97780    1.000
    H10      H        0.17140    0.72480    0.90850    1.000
    C37      C        0.18450    0.32140    0.82580    1.000
    C38      C        0.33760    0.30700    0.58270    1.000
    C39      C        0.43510    0.34700    0.50250    1.000
    H11      H        0.40160    0.46260    0.50940    1.000
    C40      C        0.05220    0.47090    0.64140    1.000
    C41      C        0.02050    0.59200    0.58450    1.000
    H12      H        0.11740    0.63150    0.56850    1.000
    C42      C        0.47680    0.39980    0.90840    1.000
    H13      H        0.38190    0.35660    0.92390    1.000
    H14      H        0.55400    0.45700    0.87360    1.000
    C43      C        0.05730    0.64280    0.00220    1.000
    H15      H        0.09580    0.52510    0.99740    1.000
    H16      H        0.04080    0.75580    0.99590    1.000
    C44      C        0.15720    0.26470    0.85320    1.000
    C45      C        0.41000    0.28820    0.52720    1.000
    H17      H        0.32300    0.26740    0.60260    1.000
    H18      H        0.48650    0.33390    0.46710    1.000
    C46      C        0.00080    0.53180    0.61340    1.000
    H19      H        0.03460    0.43240    0.66030    1.000
    H20      H        0.98210    0.63060    0.56660    1.000
    H21      H        0.51380    0.36280    0.92830    1.000
    H22      H        0.00730    0.65360    0.03810    1.000
    C47      C        0.11430    0.23380    0.82160    1.000
    C48      C        0.17730    0.23330    0.90930    1.000
    H23      H        0.44390    0.23710    0.50850    1.000
    H24      H        0.94800    0.53080    0.61160    1.000
    C49      C        0.08970    0.17560    0.85080    1.000
    H25      H        0.10290    0.25170    0.78280    1.000
    C50      C        0.14530    0.17990    0.93930    1.000
    H26      H        0.21170    0.24810    0.92790    1.000
    C51      C        0.09910    0.15060    0.91070    1.000
    H27      H        0.06410    0.15360    0.82840    1.000
    H28      H        0.15530    0.16250    0.97880    1.000
    C52      C        0.06080    0.09510    0.94370    1.000
    O8       O        0.03490    0.06450    0.90880    1.000
    O9       O        0.05590    0.09110    0.00060    1.000
    Zn2      Zn       0.98277    0.98473    0.94109    1.000
    N3       N        0.92780    0.97680    0.87150    1.000
    O10      O        0.10900    0.90440    0.91170    1.000
    O11      O        0.86500    0.07330    0.99950    1.000
    C53      C        0.92900    0.02340    0.82040    1.000
    C54      C        0.87710    0.93380    0.88080    1.000
    C55      C        0.15620    0.89250    0.94820    1.000
    C56      C        0.88060    0.03180    0.77640    1.000
    H29      H        0.96430    0.05110    0.81570    1.000
    C57      C        0.82580    0.94370    0.83750    1.000
    H30      H        0.87660    0.89990    0.91340    1.000
    C58      C        0.25280    0.83910    0.92100    1.000
    C59      C        0.82840    0.98940    0.78540    1.000
    H31      H        0.88360    0.06450    0.74300    1.000
    H32      H        0.78800    0.91810    0.84400    1.000
    C60      C        0.30730    0.82660    0.96130    1.000
    C61      C        0.28360    0.79950    0.85810    1.000
    C62      C        0.77400    0.99940    0.74360    1.000
    C63      C        0.39630    0.77330    0.93830    1.000
    H33      H        0.28600    0.85720    0.00160    1.000
    C64      C        0.37200    0.74680    0.83620    1.000
    H34      H        0.24720    0.81000    0.83080    1.000
    C65      C        0.80330    0.00540    0.67700    1.000
    C66      C        0.68600    0.00720    0.77040    1.000
    C67      C        0.42780    0.73490    0.87520    1.000
    H35      H        0.43360    0.76240    0.96510    1.000
    H36      H        0.39330    0.71810    0.79550    1.000
    C68      C        0.74700    0.01680    0.63830    1.000
    H37      H        0.86050    0.00310    0.65840    1.000
    C69      C        0.62750    0.01740    0.73400    1.000
    H38      H        0.66560    0.00470    0.81560    1.000
    C70      C        0.51460    0.67750    0.85070    1.000
    H39      H        0.76710    0.02010    0.59290    1.000
    H40      H        0.57060    0.01870    0.75170    1.000
    C71      C        0.58690    0.62260    0.82210    1.000
    C72      C        0.66530    0.55970    0.78850    1.000
    C73      C        0.68330    0.54610    0.72060    1.000
    C74      C        0.73160    0.51600    0.81600    1.000
    C75      C        0.62000    0.58820    0.67940    1.000
    C76      C        0.75990    0.48560    0.68260    1.000
    C77      C        0.72650    0.52600    0.88710    1.000
    C78      C        0.81000    0.45700    0.77730    1.000
    C79      C        0.60700    0.53160    0.64500    1.000
    C80      C        0.67470    0.62080    0.62690    1.000
    H41      H        0.56420    0.62940    0.70580    1.000
    C81      C        0.76470    0.48290    0.61120    1.000
    C82      C        0.82530    0.44050    0.71060    1.000
    C83      C        0.74200    0.44000    0.90790    1.000
    C84      C        0.80750    0.53640    0.88840    1.000
    H42      H        0.67180    0.56630    0.91440    1.000
    C85      C        0.87210    0.41240    0.81620    1.000
    C86      C        0.68330    0.46950    0.60840    1.000
    C87      C        0.52510    0.53110    0.64720    1.000
    C88      C        0.75260    0.56040    0.59120    1.000
    C89      C        0.65200    0.69960    0.62060    1.000
    H43      H        0.82030    0.44170    0.58450    1.000
    C90      C        0.90530    0.37900    0.67110    1.000
    C91      C        0.81960    0.38170    0.86860    1.000
    C92      C        0.68390    0.42280    0.96030    1.000
    C93      C        0.88530    0.47570    0.85140    1.000
    C94      C        0.81250    0.59870    0.91840    1.000
    H44      H        0.92810    0.37170    0.78930    1.000
    C95      C        0.68060    0.41040    0.57230    1.000
    C96      C        0.52320    0.47090    0.61220    1.000
    H45      H        0.47260    0.57080    0.67190    1.000
    C97      C        0.80580    0.58580    0.54220    1.000
    C98      C        0.71160    0.72030    0.57240    1.000
    H46      H        0.59870    0.73680    0.64630    1.000
    C99      C        0.96930    0.32640    0.64160    1.000
    C100     C        0.84050    0.30450    0.87940    1.000
    C101     C        0.70610    0.34590    0.97290    1.000
    H47      H        0.63360    0.46140    0.98720    1.000
    C102     C        0.96720    0.47750    0.84660    1.000
    C103     C        0.89420    0.60000    0.91480    1.000
    H48      H        0.76000    0.63760    0.94440    1.000
    C104     C        0.59890    0.40990    0.57390    1.000
    H49      H        0.73290    0.37170    0.54610    1.000
    H50      H        0.46850    0.47190    0.61300    1.000
    C105     C        0.78900    0.66330    0.53150    1.000
    H51      H        0.85860    0.54780    0.51610    1.000
    H52      H        0.69940    0.77200    0.56710    1.000
    C106     C        0.05040    0.26760    0.60650    1.000
    C107     C        0.78250    0.28810    0.93260    1.000
    H53      H        0.89200    0.26560    0.85290    1.000
    H54      H        0.66870    0.33390    0.00800    1.000
    C108     C        0.97150    0.53770    0.88000    1.000
    H55      H        0.01860    0.43870    0.82110    1.000
    H56      H        0.89580    0.64150    0.93620    1.000
    H57      H        0.59580    0.37000    0.55140    1.000
    H58      H        0.82630    0.67710    0.49800    1.000
    C109     C        0.12050    0.24300    0.63310    1.000
    C110     C        0.06600    0.23150    0.54540    1.000
    H59      H        0.79350    0.23700    0.94070    1.000
    H60      H        0.02590    0.53810    0.87830    1.000
    C111     C        0.20440    0.18750    0.59860    1.000
    H61      H        0.11120    0.26440    0.67490    1.000
    C112     C        0.14800    0.17380    0.51210    1.000
    H62      H        0.02050    0.24800    0.52620    1.000
    C113     C        0.21910    0.15090    0.53800    1.000
    H63      H        0.25190    0.17510    0.61570    1.000
    H64      H        0.15580    0.14840    0.47230    1.000
    C114     C        0.31040    0.09440    0.49890    1.000
    O12      O        0.54850    0.08570    0.47760    1.000
    O13      O        0.49010    0.01290    0.59720    1.000
    O14      O        0.62790    0.92030    0.47380    1.000
    C115     C        0.59850    0.11270    0.49220    1.000
    Zn3      Zn       0.58712    0.03597    0.60723    1.000
    N4       N        0.45550    0.98230    0.64740    1.000
    C116     C        0.62880    0.16510    0.44620    1.000
    O15      O        0.62030    0.10150    0.54590    1.000
    N5       N        0.66080    0.02320    0.66730    1.000
    O16      O        0.68850    0.94010    0.55040    1.000
    O17      O        0.48730    0.96830    0.69670    1.000
    O18      O        0.40510    0.94840    0.64160    1.000
    C117     C        0.68140    0.19760    0.46230    1.000
    C118     C        0.60030    0.18390    0.39120    1.000
    C119     C        0.70060    0.25080    0.42160    1.000
    H65      H        0.70210    0.18350    0.49880    1.000
    C120     C        0.62720    0.23390    0.35030    1.000
    H66      H        0.56450    0.16200    0.38210    1.000
    C121     C        0.67940    0.26870    0.36370    1.000
    H67      H        0.73030    0.27670    0.43400    1.000
    H68      H        0.60820    0.24580    0.31310    1.000
    C122     C        0.70090    0.32590    0.32940    1.000
    C123     C        0.71570    0.38000    0.30160    1.000
    C124     C        0.73180    0.44080    0.27490    1.000
    C125     C        0.73030    0.45990    0.21160    1.000
    C126     C        0.75680    0.48410    0.31180    1.000
    C127     C        0.71380    0.41730    0.16210    1.000
    C128     C        0.75710    0.51740    0.18490    1.000
    C129     C        0.75570    0.47630    0.38410    1.000
    C130     C        0.78050    0.54330    0.28590    1.000
    C131     C        0.64070    0.47890    0.14220    1.000
    C132     C        0.79550    0.38970    0.10370    1.000
    H69      H        0.69820    0.37490    0.18080    1.000
    C133     C        0.75600    0.52610    0.11180    1.000
    C134     C        0.78160    0.56120    0.22190    1.000
    C135     C        0.69220    0.55760    0.41870    1.000
    C136     C        0.84410    0.46890    0.38750    1.000
    H70      H        0.73940    0.43390    0.40180    1.000
    C137     C        0.80030    0.58750    0.33420    1.000
    C138     C        0.66050    0.54060    0.11550    1.000
    C139     C        0.55670    0.48050    0.14880    1.000
    C140     C        0.81570    0.45040    0.07590    1.000
    C141     C        0.84480    0.31460    0.07360    1.000
    H71      H        0.77100    0.56890    0.09320    1.000
    C142     C        0.79910    0.62440    0.19660    1.000
    C143     C        0.71630    0.61660    0.39230    1.000
    C144     C        0.61650    0.57590    0.47300    1.000
    C145     C        0.86680    0.52790    0.35930    1.000
    C146     C        0.89970    0.40740    0.41310    1.000
    H72      H        0.81780    0.62870    0.31530    1.000
    C147     C        0.60420    0.60190    0.09080    1.000
    C148     C        0.50200    0.54120    0.12250    1.000
    H73      H        0.54040    0.44160    0.16780    1.000
    C149     C        0.89070    0.43490    0.02160    1.000
    C150     C        0.92340    0.29490    0.02220    1.000
    H74      H        0.82860    0.27520    0.09150    1.000
    C151     C        0.81550    0.67860    0.17420    1.000
    C152     C        0.66240    0.69300    0.41730    1.000
    C153     C        0.56490    0.65300    0.49750    1.000
    H75      H        0.59840    0.53740    0.49060    1.000
    C154     C        0.94780    0.52910    0.35860    1.000
    C155     C        0.97950    0.40800    0.41550    1.000
    H76      H        0.88260    0.36850    0.43150    1.000
    C156     C        0.52320    0.60020    0.09160    1.000
    H77      H        0.61810    0.64340    0.07610    1.000
    H78      H        0.44600    0.54300    0.12640    1.000
    C157     C        0.94270    0.35720    0.99780    1.000
    H79      H        0.90420    0.47490    0.00260    1.000
    H80      H        0.95920    0.24420    0.00410    1.000
    C158     C        0.84280    0.73530    0.14680    1.000
    C159     C        0.59000    0.71180    0.47280    1.000
    H81      H        0.67700    0.73260    0.39740    1.000
    H82      H        0.51350    0.66610    0.53290    1.000
    C160     C        0.99920    0.46820    0.38660    1.000
    H83      H        0.96540    0.56760    0.33970    1.000
    H84      H        0.01790    0.36940    0.43340    1.000
    H85      H        0.48620    0.63720    0.07170    1.000
    H86      H        0.99270    0.34640    0.96190    1.000
    C161     C        0.88570    0.76620    0.17840    1.000
    C162     C        0.82270    0.76670    0.09070    1.000
    H87      H        0.55610    0.76290    0.49150    1.000
    H88      H        0.05200    0.46920    0.38840    1.000
    C163     C        0.91030    0.82440    0.14920    1.000
    H89      H        0.89710    0.74830    0.21720    1.000
    C164     C        0.85470    0.82010    0.06070    1.000
    H90      H        0.78830    0.75190    0.07210    1.000
    C165     C        0.90090    0.84940    0.08930    1.000
    H91      H        0.93590    0.84640    0.17160    1.000
    H92      H        0.84470    0.83750    0.02120    1.000
    C166     C        0.93920    0.90490    0.05630    1.000
    O19      O        0.96510    0.93550    0.09120    1.000
    O20      O        0.94410    0.90890    0.99940    1.000
    Zn4      Zn       0.01723    0.01527    0.05891    1.000
    N6       N        0.07220    0.02320    0.12850    1.000
    O21      O        0.89100    0.09560    0.08830    1.000
    O22      O        0.13500    0.92670    0.00050    1.000
    C167     C        0.07100    0.97660    0.17960    1.000
    C168     C        0.12290    0.06620    0.11920    1.000
    C169     C        0.84380    0.10750    0.05180    1.000
    C170     C        0.11940    0.96820    0.22360    1.000
    H93      H        0.03570    0.94890    0.18430    1.000
    C171     C        0.17420    0.05630    0.16250    1.000
    H94      H        0.12340    0.10010    0.08660    1.000
    C172     C        0.74720    0.16090    0.07900    1.000
    C173     C        0.17160    0.01060    0.21460    1.000
    H95      H        0.11640    0.93550    0.25700    1.000
    H96      H        0.21200    0.08190    0.15600    1.000
    C174     C        0.69270    0.17340    0.03870    1.000
    C175     C        0.71640    0.20050    0.14190    1.000
    C176     C        0.22600    0.00060    0.25640    1.000
    C177     C        0.60370    0.22670    0.06170    1.000
    H97      H        0.71400    0.14280    0.99840    1.000
    C178     C        0.62800    0.25320    0.16380    1.000
    H98      H        0.75280    0.19000    0.16920    1.000
    C179     C        0.19670    0.99460    0.32300    1.000
    C180     C        0.31400    0.99280    0.22960    1.000
    C181     C        0.57220    0.26510    0.12480    1.000
    H99      H        0.56640    0.23760    0.03490    1.000
    H100     H        0.60670    0.28190    0.20450    1.000
    C182     C        0.25300    0.98320    0.36170    1.000
    H101     H        0.13950    0.99690    0.34160    1.000
    C183     C        0.37250    0.98260    0.26600    1.000
    H102     H        0.33440    0.99530    0.18440    1.000
    C184     C        0.48540    0.32250    0.14930    1.000
    H103     H        0.23290    0.97990    0.40710    1.000
    H104     H        0.42940    0.98130    0.24830    1.000
    C185     C        0.41310    0.37740    0.17790    1.000
    C186     C        0.33470    0.44030    0.21150    1.000
    C187     C        0.31670    0.45390    0.27940    1.000
    C188     C        0.26840    0.48400    0.18400    1.000
    C189     C        0.38000    0.41180    0.32060    1.000
    C190     C        0.24010    0.51440    0.31740    1.000
    C191     C        0.27350    0.47400    0.11290    1.000
    C192     C        0.19000    0.54300    0.22270    1.000
    C193     C        0.39300    0.46840    0.35500    1.000
    C194     C        0.32530    0.37920    0.37310    1.000
    H105     H        0.43580    0.37060    0.29420    1.000
    C195     C        0.23530    0.51710    0.38880    1.000
    C196     C        0.17470    0.55950    0.28940    1.000
    C197     C        0.25800    0.56000    0.09210    1.000
    C198     C        0.19250    0.46360    0.11160    1.000
    H106     H        0.32820    0.43370    0.08560    1.000
    C199     C        0.12790    0.58760    0.18380    1.000
    C200     C        0.31670    0.53050    0.39160    1.000
    C201     C        0.47490    0.46890    0.35280    1.000
    C202     C        0.24740    0.43960    0.40880    1.000
    C203     C        0.34800    0.30040    0.37940    1.000
    H107     H        0.17970    0.55830    0.41550    1.000
    C204     C        0.09470    0.62100    0.32890    1.000
    C205     C        0.18040    0.61830    0.13140    1.000
    C206     C        0.31610    0.57720    0.03970    1.000
    C207     C        0.11470    0.52430    0.14860    1.000
    C208     C        0.18750    0.40130    0.08160    1.000
    H108     H        0.07190    0.62830    0.21070    1.000
    C209     C        0.31940    0.58960    0.42770    1.000
    C210     C        0.47680    0.52910    0.38780    1.000
    H109     H        0.52740    0.42920    0.32810    1.000
    C211     C        0.19420    0.41420    0.45780    1.000
    C212     C        0.28840    0.27970    0.42760    1.000
    H110     H        0.40130    0.26320    0.35370    1.000
    C213     C        0.03070    0.67360    0.35840    1.000
    C214     C        0.15950    0.69550    0.12060    1.000
    C215     C        0.29390    0.65410    0.02710    1.000
    H111     H        0.36640    0.53860    0.01280    1.000
    C216     C        0.03280    0.52250    0.15340    1.000
    C217     C        0.10580    0.40000    0.08520    1.000
    H112     H        0.24000    0.36240    0.05560    1.000
    C218     C        0.40110    0.59010    0.42610    1.000
    H113     H        0.26710    0.62830    0.45390    1.000
    H114     H        0.53150    0.52810    0.38700    1.000
    C219     C        0.21100    0.33670    0.46850    1.000
    H115     H        0.14140    0.45220    0.48390    1.000
    H116     H        0.30060    0.22800    0.43290    1.000
    C220     C        0.94960    0.73240    0.39350    1.000
    C221     C        0.21750    0.71190    0.06740    1.000
    H117     H        0.10800    0.73440    0.14710    1.000
    H118     H        0.33130    0.66610    0.99200    1.000
    C222     C        0.02850    0.46230    0.12000    1.000
    H119     H        0.98140    0.56130    0.17890    1.000
    H120     H        0.10420    0.35850    0.06380    1.000
    H121     H        0.40420    0.63000    0.44860    1.000
    H122     H        0.17370    0.32290    0.50200    1.000
    C223     C        0.87950    0.75700    0.36690    1.000
    C224     C        0.93400    0.76850    0.45460    1.000
    H123     H        0.20650    0.76300    0.05930    1.000
    H124     H        0.97410    0.46190    0.12170    1.000
    C225     C        0.79560    0.81250    0.40140    1.000
    H125     H        0.88880    0.73560    0.32510    1.000
    C226     C        0.85200    0.82620    0.48790    1.000
    H126     H        0.97950    0.75200    0.47380    1.000
    C227     C        0.78090    0.84910    0.46200    1.000
    H127     H        0.74810    0.82490    0.38430    1.000
    H128     H        0.84420    0.85160    0.52770    1.000
    C228     C        0.68960    0.90560    0.50110    1.000
    Zn5      Zn       0.50000    0.00000    0.50000    1.000
