# CIF file generated by openbabel 3.1.0, see https://openbabel.org
data_I
_chemical_name_common 'GAXQIH_clean'
_cell_length_a 11.144
_cell_length_b 15.2392
_cell_length_c 16.695
_cell_angle_alpha 114.419
_cell_angle_beta 90
_cell_angle_gamma 111.447
_space_group_name_H-M_alt 'P 1'
_space_group_name_Hall 'P 1'
loop_
    _symmetry_equiv_pos_as_xyz
    x,y,z
loop_
    _atom_site_label
    _atom_site_type_symbol
    _atom_site_fract_x
    _atom_site_fract_y
    _atom_site_fract_z
    _atom_site_occupancy
    Ni1      Ni       0.00000    0.50000    0.00000    1.000
    Ni2      Ni       0.50000    0.50000    0.50000    1.000
    Ni3      Ni       0.50000    0.50000    0.00000    1.000
    Ni4      Ni       0.00000    0.50000    0.50000    1.000
    H1       H        0.20590    0.32980    0.63000    1.000
    H2       H        0.04290    0.57080    0.82010    1.000
    H3       H        0.06290    0.30440    0.89470    1.000
    H4       H        0.71420    0.32800    0.88240    1.000
    H5       H        0.57310    0.15800    0.84220    1.000
    H6       H        0.81500    0.14620    0.01090    1.000
    H7       H        0.94710    0.31680    0.04710    1.000
    H8       H        0.68420    0.86740    0.02020    1.000
    H9       H        0.67160    0.73240    0.05310    1.000
    H10      H        0.35170    0.54020    0.87600    1.000
    H11      H        0.35440    0.66940    0.83900    1.000
    H12      H        0.34430    0.82860    0.82430    1.000
    H13      H        0.13520    0.24560    0.75930    1.000
    H14      H        0.87610    0.67020    0.87000    1.000
    H15      H        0.47210    0.42920    0.67990    1.000
    H16      H        0.75850    0.69560    0.60530    1.000
    H17      H        0.38620    0.67200    0.61760    1.000
    H18      H        0.41510    0.84200    0.65780    1.000
    H19      H        0.66880    0.85380    0.48910    1.000
    H20      H        0.63030    0.68320    0.45290    1.000
    H21      H        0.81680    0.13260    0.47980    1.000
    H22      H        0.93920    0.26760    0.44690    1.000
    H23      H        0.81150    0.45980    0.62400    1.000
    H24      H        0.68500    0.33060    0.66100    1.000
    H25      H        0.51570    0.17140    0.67570    1.000
    H26      H        0.88960    0.75440    0.74070    1.000
    H27      H        0.79410    0.67020    0.37000    1.000
    H28      H        0.95710    0.42920    0.17990    1.000
    H29      H        0.93710    0.69560    0.10530    1.000
    H30      H        0.28580    0.67200    0.11760    1.000
    H31      H        0.42690    0.84200    0.15780    1.000
    H32      H        0.18500    0.85380    0.98910    1.000
    H33      H        0.05290    0.68320    0.95290    1.000
    H34      H        0.31580    0.13260    0.97980    1.000
    H35      H        0.32840    0.26760    0.94690    1.000
    H36      H        0.64830    0.45980    0.12400    1.000
    H37      H        0.64560    0.33060    0.16100    1.000
    H38      H        0.65570    0.17140    0.17570    1.000
    H39      H        0.86480    0.75440    0.24070    1.000
    H40      H        0.12390    0.32980    0.13000    1.000
    H41      H        0.52790    0.57080    0.32010    1.000
    H42      H        0.24150    0.30440    0.39470    1.000
    H43      H        0.61380    0.32800    0.38240    1.000
    H44      H        0.58490    0.15800    0.34220    1.000
    H45      H        0.33120    0.14620    0.51090    1.000
    H46      H        0.36970    0.31680    0.54710    1.000
    H47      H        0.18320    0.86740    0.52020    1.000
    H48      H        0.06080    0.73240    0.55310    1.000
    H49      H        0.18850    0.54020    0.37600    1.000
    H50      H        0.31500    0.66940    0.33900    1.000
    H51      H        0.48430    0.82860    0.32430    1.000
    H52      H        0.11040    0.24560    0.25930    1.000
    C1       C        0.23360    0.47060    0.57170    1.000
    C2       C        0.17110    0.45900    0.65000    1.000
    C3       C        0.12280    0.53260    0.70770    1.000
    C4       C        0.12170    0.62680    0.69700    1.000
    C5       C        0.17320    0.37740    0.66720    1.000
    C6       C        0.12410    0.36920    0.74270    1.000
    C7       C        0.07900    0.44280    0.80130    1.000
    C8       C        0.07590    0.52360    0.78280    1.000
    C9       C        0.07450    0.33640    0.85660    1.000
    C10      C        0.73510    0.29140    0.90910    1.000
    C11      C        0.64880    0.18840    0.88430    1.000
    C12      C        0.67620    0.13080    0.92290    1.000
    C13      C        0.79120    0.18140    0.98390    1.000
    C14      C        0.87110    0.28480    0.00490    1.000
    C15      C        0.59090    0.02080    0.90160    1.000
    C16      C        0.52930    0.87300    0.90490    1.000
    C17      C        0.52100    0.78320    0.92410    1.000
    C18      C        0.61600    0.80140    0.98990    1.000
    C19      C        0.60710    0.71960    0.00950    1.000
    C20      C        0.41910    0.60680    0.90550    1.000
    C21      C        0.42040    0.68380    0.88240    1.000
    C22      C        0.76300    0.52940    0.92830    1.000
    C23      C        0.71210    0.54100    0.85000    1.000
    C24      C        0.59020    0.46740    0.79230    1.000
    C25      C        0.49490    0.37320    0.80300    1.000
    C26      C        0.79580    0.62260    0.83280    1.000
    C27      C        0.75490    0.63080    0.75730    1.000
    C28      C        0.63620    0.55720    0.69870    1.000
    C29      C        0.55230    0.47640    0.71720    1.000
    C30      C        0.73810    0.66360    0.64340    1.000
    C31      C        0.44370    0.70860    0.59090    1.000
    C32      C        0.46040    0.81160    0.61570    1.000
    C33      C        0.54540    0.86920    0.57710    1.000
    C34      C        0.60980    0.81860    0.51610    1.000
    C35      C        0.58630    0.71520    0.49510    1.000
    C36      C        0.57010    0.97920    0.59840    1.000
    C37      C        0.65630    0.12700    0.59510    1.000
    C38      C        0.73780    0.21680    0.57590    1.000
    C39      C        0.81460    0.19860    0.51010    1.000
    C40      C        0.88750    0.28040    0.49050    1.000
    C41      C        0.81230    0.39320    0.59450    1.000
    C42      C        0.73660    0.31620    0.61760    1.000
    C43      C        0.76640    0.52940    0.42830    1.000
    C44      C        0.82890    0.54100    0.35000    1.000
    C45      C        0.87720    0.46740    0.29230    1.000
    C46      C        0.87830    0.37320    0.30300    1.000
    C47      C        0.82680    0.62260    0.33280    1.000
    C48      C        0.87590    0.63080    0.25730    1.000
    C49      C        0.92100    0.55720    0.19870    1.000
    C50      C        0.92410    0.47640    0.21720    1.000
    C51      C        0.92550    0.66360    0.14340    1.000
    C52      C        0.26490    0.70860    0.09090    1.000
    C53      C        0.35120    0.81160    0.11570    1.000
    C54      C        0.32380    0.86920    0.07710    1.000
    C55      C        0.20880    0.81860    0.01610    1.000
    C56      C        0.12890    0.71520    0.99510    1.000
    C57      C        0.40910    0.97920    0.09840    1.000
    C58      C        0.47070    0.12700    0.09510    1.000
    C59      C        0.47900    0.21680    0.07590    1.000
    C60      C        0.38400    0.19860    0.01010    1.000
    C61      C        0.39290    0.28040    0.99050    1.000
    C62      C        0.58090    0.39320    0.09450    1.000
    C63      C        0.57960    0.31620    0.11760    1.000
    C64      C        0.23700    0.47060    0.07170    1.000
    C65      C        0.28790    0.45900    0.15000    1.000
    C66      C        0.40980    0.53260    0.20770    1.000
    C67      C        0.50510    0.62680    0.19700    1.000
    C68      C        0.20420    0.37740    0.16720    1.000
    C69      C        0.24510    0.36920    0.24270    1.000
    C70      C        0.36380    0.44280    0.30130    1.000
    C71      C        0.44770    0.52360    0.28280    1.000
    C72      C        0.26190    0.33640    0.35660    1.000
    C73      C        0.55630    0.29140    0.40910    1.000
    C74      C        0.53960    0.18840    0.38430    1.000
    C75      C        0.45460    0.13080    0.42290    1.000
    C76      C        0.39020    0.18140    0.48390    1.000
    C77      C        0.41370    0.28480    0.50490    1.000
    C78      C        0.42990    0.02080    0.40160    1.000
    C79      C        0.34370    0.87300    0.40490    1.000
    C80      C        0.26220    0.78320    0.42410    1.000
    C81      C        0.18540    0.80140    0.48990    1.000
    C82      C        0.11250    0.71960    0.50950    1.000
    C83      C        0.18770    0.60680    0.40550    1.000
    C84      C        0.26340    0.68380    0.38240    1.000
    N1       N        0.84730    0.34240    0.96910    1.000
    N2       N        0.63030    0.96680    0.93810    1.000
    N3       N        0.47230    0.96540    0.85000    1.000
    N4       N        0.43200    0.86900    0.85210    1.000
    N5       N        0.51040    0.62300    0.96880    1.000
    N6       N        0.11850    0.30040    0.77850    1.000
    N7       N        0.04900    0.42140    0.87460    1.000
    N8       N        0.50490    0.65760    0.53090    1.000
    N9       N        0.66350    0.03320    0.56190    1.000
    N10      N        0.50690    0.03460    0.65000    1.000
    N11      N        0.56300    0.13100    0.64790    1.000
    N12      N        0.88740    0.37700    0.53120    1.000
    N13      N        0.81810    0.69960    0.72150    1.000
    N14      N        0.62760    0.57860    0.62540    1.000
    N15      N        0.15270    0.65760    0.03090    1.000
    N16      N        0.36970    0.03320    0.06190    1.000
    N17      N        0.52770    0.03460    0.15000    1.000
    N18      N        0.56800    0.13100    0.14790    1.000
    N19      N        0.48960    0.37700    0.03120    1.000
    N20      N        0.88150    0.69960    0.22150    1.000
    N21      N        0.95100    0.57860    0.12540    1.000
    N22      N        0.49510    0.34240    0.46910    1.000
    N23      N        0.33650    0.96680    0.43810    1.000
    N24      N        0.49310    0.96540    0.35000    1.000
    N25      N        0.43700    0.86900    0.35210    1.000
    N26      N        0.11260    0.62300    0.46880    1.000
    N27      N        0.18190    0.30040    0.27850    1.000
    N28      N        0.37240    0.42140    0.37460    1.000
    O1       O        0.34615    0.46970    0.56960    1.000
    O2       O        0.17132    0.47944    0.51360    1.000
    O3       O        0.04957    0.61314    0.63130    1.000
    O4       O        0.19040    0.71620    0.75870    1.000
    O5       O        0.87645    0.53030    0.93040    1.000
    O6       O        0.69188    0.52056    0.98640    1.000
    O7       O        0.43643    0.38686    0.86870    1.000
    O8       O        0.47420    0.28380    0.74130    1.000
    O9       O        0.65385    0.53030    0.43040    1.000
    O10      O        0.82868    0.52056    0.48640    1.000
    O11      O        0.95043    0.38686    0.36870    1.000
    O12      O        0.80960    0.28380    0.24130    1.000
    O13      O        0.12355    0.46970    0.06960    1.000
    O14      O        0.30812    0.47944    0.01360    1.000
    O15      O        0.56357    0.61314    0.13130    1.000
    O16      O        0.52580    0.71620    0.25870    1.000
