# CIF file generated by openbabel 3.1.0, see https://openbabel.org
data_I
_chemical_name_common 'IMUTUG_ion_b'
_cell_length_a 22.269
_cell_length_b 22.269
_cell_length_c 22.269
_cell_angle_alpha 109.471
_cell_angle_beta 109.471
_cell_angle_gamma 109.471
_space_group_name_H-M_alt 'P 1'
_space_group_name_Hall 'P 1'
loop_
    _symmetry_equiv_pos_as_xyz
    x,y,z
loop_
    _atom_site_label
    _atom_site_type_symbol
    _atom_site_fract_x
    _atom_site_fract_y
    _atom_site_fract_z
    _atom_site_occupancy
    O1       O        0.54650    0.81060    0.19150    1.000
    O2       O        0.67020    0.94020    0.08800    1.000
    O3       O        0.80360    0.93790    0.07930    1.000
    O4       O        0.53690    0.86610    0.27960    1.000
    C5       C        0.55970    0.86840    0.23610    1.000
    C6       C        0.62060    0.92940    0.18120    1.000
    H7       H        0.60001    0.87357    0.13349    1.000
    C8       C        0.60100    0.93360    0.23960    1.000
    O10      O        0.61910    0.35500    0.80850    1.000
    O11      O        0.85220    0.58220    0.91200    1.000
    O12      O        0.85860    0.72430    0.92070    1.000
    O13      O        0.58650    0.25730    0.72040    1.000
    C14      C        0.63230    0.32360    0.76390    1.000
    C15      C        0.74820    0.43940    0.81880    1.000
    H16      H        0.74008    0.46653    0.86651    1.000
    C17      C        0.69400    0.36140    0.76040    1.000
    O19      O        0.38090    0.18940    0.73590    1.000
    O20      O        0.14780    0.05980    0.73000    1.000
    O21      O        0.14140    0.06210    0.86570    1.000
    O22      O        0.41350    0.13390    0.67080    1.000
    C23      C        0.36770    0.13160    0.69130    1.000
    C24      C        0.25180    0.07060    0.69120    1.000
    H25      H        0.25992    0.12643    0.72645    1.000
    C26      C        0.30600    0.06640    0.66740    1.000
    O28      O        0.45350    0.64500    0.26410    1.000
    O29      O        0.32980    0.41780    0.27000    1.000
    O30      O        0.19640    0.27570    0.13430    1.000
    O31      O        0.46310    0.74270    0.32920    1.000
    C32      C        0.44030    0.67640    0.30870    1.000
    C33      C        0.37940    0.56060    0.30880    1.000
    H34      H        0.39999    0.53347    0.27355    1.000
    C35      C        0.39900    0.63860    0.33260    1.000
    O37      O        0.19150    0.54650    0.81060    1.000
    O38      O        0.08800    0.67020    0.94020    1.000
    O39      O        0.07930    0.80360    0.93790    1.000
    O40      O        0.27960    0.53690    0.86610    1.000
    C41      C        0.23610    0.55970    0.86840    1.000
    C42      C        0.18120    0.62060    0.92940    1.000
    H43      H        0.13349    0.60001    0.87357    1.000
    C44      C        0.23960    0.60100    0.93360    1.000
    O46      O        0.80850    0.61910    0.35500    1.000
    O47      O        0.91200    0.85220    0.58220    1.000
    O48      O        0.92070    0.85860    0.72430    1.000
    O49      O        0.72040    0.58650    0.25730    1.000
    C50      C        0.76390    0.63230    0.32360    1.000
    C51      C        0.81880    0.74820    0.43940    1.000
    H52      H        0.86651    0.74008    0.46653    1.000
    C53      C        0.76040    0.69400    0.36140    1.000
    O55      O        0.73590    0.38090    0.18940    1.000
    O56      O        0.73000    0.14780    0.05980    1.000
    O57      O        0.86570    0.14140    0.06210    1.000
    O58      O        0.67080    0.41350    0.13390    1.000
    C59      C        0.69130    0.36770    0.13160    1.000
    C60      C        0.69120    0.25180    0.07060    1.000
    H61      H        0.72645    0.25992    0.12643    1.000
    C62      C        0.66740    0.30600    0.06640    1.000
    O64      O        0.26410    0.45350    0.64500    1.000
    O65      O        0.27000    0.32980    0.41780    1.000
    O66      O        0.13430    0.19640    0.27570    1.000
    O67      O        0.32920    0.46310    0.74270    1.000
    C68      C        0.30870    0.44030    0.67640    1.000
    C69      C        0.30880    0.37940    0.56060    1.000
    H70      H        0.27355    0.39999    0.53347    1.000
    C71      C        0.33260    0.39900    0.63860    1.000
    O73      O        0.81060    0.19150    0.54650    1.000
    O74      O        0.94020    0.08800    0.67020    1.000
    O75      O        0.93790    0.07930    0.80360    1.000
    O76      O        0.86610    0.27960    0.53690    1.000
    C77      C        0.86840    0.23610    0.55970    1.000
    C78      C        0.92940    0.18120    0.62060    1.000
    H79      H        0.87357    0.13349    0.60001    1.000
    C80      C        0.93360    0.23960    0.60100    1.000
    O82      O        0.35500    0.80850    0.61910    1.000
    O83      O        0.58220    0.91200    0.85220    1.000
    O84      O        0.72430    0.92070    0.85860    1.000
    O85      O        0.25730    0.72040    0.58650    1.000
    C86      C        0.32360    0.76390    0.63230    1.000
    C87      C        0.43940    0.81880    0.74820    1.000
    H88      H        0.46653    0.86651    0.74008    1.000
    C89      C        0.36140    0.76040    0.69400    1.000
    O91      O        0.18940    0.73590    0.38090    1.000
    O92      O        0.05980    0.73000    0.14780    1.000
    O93      O        0.06210    0.86570    0.14140    1.000
    O94      O        0.13390    0.67080    0.41350    1.000
    C95      C        0.13160    0.69130    0.36770    1.000
    C96      C        0.07060    0.69120    0.25180    1.000
    H97      H        0.12643    0.72645    0.25992    1.000
    C98      C        0.06640    0.66740    0.30600    1.000
    O100     O        0.64500    0.26410    0.45350    1.000
    O101     O        0.41780    0.27000    0.32980    1.000
    O102     O        0.27570    0.13430    0.19640    1.000
    O103     O        0.74270    0.32920    0.46310    1.000
    C104     C        0.67640    0.30870    0.44030    1.000
    C105     C        0.56060    0.30880    0.37940    1.000
    H106     H        0.53347    0.27355    0.39999    1.000
    C107     C        0.63860    0.33260    0.39900    1.000
    O109     O        0.81060    0.54650    0.19150    1.000
    O110     O        0.94020    0.67020    0.08800    1.000
    O111     O        0.93790    0.80360    0.07930    1.000
    O112     O        0.86610    0.53690    0.27960    1.000
    C113     C        0.86840    0.55970    0.23610    1.000
    C114     C        0.92940    0.62060    0.18120    1.000
    H115     H        0.87357    0.60001    0.13349    1.000
    C116     C        0.93360    0.60100    0.23960    1.000
    O118     O        0.35500    0.61910    0.80850    1.000
    O119     O        0.58220    0.85220    0.91200    1.000
    O120     O        0.72430    0.85860    0.92070    1.000
    O121     O        0.25730    0.58650    0.72040    1.000
    C122     C        0.32360    0.63230    0.76390    1.000
    C123     C        0.43940    0.74820    0.81880    1.000
    H124     H        0.46653    0.74008    0.86651    1.000
    C125     C        0.36140    0.69400    0.76040    1.000
    O127     O        0.18940    0.38090    0.73590    1.000
    O128     O        0.05980    0.14780    0.73000    1.000
    O129     O        0.06210    0.14140    0.86570    1.000
    O130     O        0.13390    0.41350    0.67080    1.000
    C131     C        0.13160    0.36770    0.69130    1.000
    C132     C        0.07060    0.25180    0.69120    1.000
    H133     H        0.12643    0.25992    0.72645    1.000
    C134     C        0.06640    0.30600    0.66740    1.000
    O136     O        0.64500    0.45350    0.26410    1.000
    O137     O        0.41780    0.32980    0.27000    1.000
    O138     O        0.27570    0.19640    0.13430    1.000
    O139     O        0.74270    0.46310    0.32920    1.000
    C140     C        0.67640    0.44030    0.30870    1.000
    C141     C        0.56060    0.37940    0.30880    1.000
    H142     H        0.53347    0.39999    0.27355    1.000
    C143     C        0.63860    0.39900    0.33260    1.000
    O145     O        0.54650    0.19150    0.81060    1.000
    O146     O        0.67020    0.08800    0.94020    1.000
    O147     O        0.80360    0.07930    0.93790    1.000
    O148     O        0.53690    0.27960    0.86610    1.000
    C149     C        0.55970    0.23610    0.86840    1.000
    C150     C        0.62060    0.18120    0.92940    1.000
    H151     H        0.60001    0.13349    0.87357    1.000
    C152     C        0.60100    0.23960    0.93360    1.000
    O154     O        0.61910    0.80850    0.35500    1.000
    O155     O        0.85220    0.91200    0.58220    1.000
    O156     O        0.85860    0.92070    0.72430    1.000
    O157     O        0.58650    0.72040    0.25730    1.000
    C158     C        0.63230    0.76390    0.32360    1.000
    C159     C        0.74820    0.81880    0.43940    1.000
    H160     H        0.74008    0.86651    0.46653    1.000
    C161     C        0.69400    0.76040    0.36140    1.000
    O163     O        0.38090    0.73590    0.18940    1.000
    O164     O        0.14780    0.73000    0.05980    1.000
    O165     O        0.14140    0.86570    0.06210    1.000
    O166     O        0.41350    0.67080    0.13390    1.000
    C167     C        0.36770    0.69130    0.13160    1.000
    C168     C        0.25180    0.69120    0.07060    1.000
    H169     H        0.25992    0.72645    0.12643    1.000
    C170     C        0.30600    0.66740    0.06640    1.000
    O172     O        0.45350    0.26410    0.64500    1.000
    O173     O        0.32980    0.27000    0.41780    1.000
    O174     O        0.19640    0.13430    0.27570    1.000
    O175     O        0.46310    0.32920    0.74270    1.000
    C176     C        0.44030    0.30870    0.67640    1.000
    C177     C        0.37940    0.30880    0.56060    1.000
    H178     H        0.39999    0.27355    0.53347    1.000
    C179     C        0.39900    0.33260    0.63860    1.000
    O181     O        0.19150    0.81060    0.54650    1.000
    O182     O        0.08800    0.94020    0.67020    1.000
    O183     O        0.07930    0.93790    0.80360    1.000
    O184     O        0.27960    0.86610    0.53690    1.000
    C185     C        0.23610    0.86840    0.55970    1.000
    C186     C        0.18120    0.92940    0.62060    1.000
    H187     H        0.13349    0.87357    0.60001    1.000
    C188     C        0.23960    0.93360    0.60100    1.000
    O190     O        0.80850    0.35500    0.61910    1.000
    O191     O        0.91200    0.58220    0.85220    1.000
    O192     O        0.92070    0.72430    0.85860    1.000
    O193     O        0.72040    0.25730    0.58650    1.000
    C194     C        0.76390    0.32360    0.63230    1.000
    C195     C        0.81880    0.43940    0.74820    1.000
    H196     H        0.86651    0.46653    0.74008    1.000
    C197     C        0.76040    0.36140    0.69400    1.000
    O199     O        0.73590    0.18940    0.38090    1.000
    O200     O        0.73000    0.05980    0.14780    1.000
    O201     O        0.86570    0.06210    0.14140    1.000
    O202     O        0.67080    0.13390    0.41350    1.000
    C203     C        0.69130    0.13160    0.36770    1.000
    C204     C        0.69120    0.07060    0.25180    1.000
    H205     H        0.72645    0.12643    0.25992    1.000
    C206     C        0.66740    0.06640    0.30600    1.000
    O208     O        0.26410    0.64500    0.45350    1.000
    O209     O        0.27000    0.41780    0.32980    1.000
    O210     O        0.13430    0.27570    0.19640    1.000
    O211     O        0.32920    0.74270    0.46310    1.000
    C212     C        0.30870    0.67640    0.44030    1.000
    C213     C        0.30880    0.56060    0.37940    1.000
    H214     H        0.27355    0.53347    0.39999    1.000
    C215     C        0.33260    0.63860    0.39900    1.000
    In217    In       0.69437    0.90283    0.00000    1.000
    In219    In       0.90283    0.69437    0.00000    1.000
    In221    In       0.09717    0.09717    0.79154    1.000
    In223    In       0.30563    0.30563    0.20846    1.000
    In225    In       0.00000    0.69437    0.90283    1.000
    In227    In       0.00000    0.90283    0.69437    1.000
    In229    In       0.79154    0.09717    0.09717    1.000
    In231    In       0.20846    0.30563    0.30563    1.000
    In233    In       0.90283    0.00000    0.69437    1.000
    In235    In       0.69437    0.00000    0.90283    1.000
    In237    In       0.09717    0.79154    0.09717    1.000
    In239    In       0.30563    0.20846    0.30563    1.000
    In241    In       0.50000    0.75000    0.25000    1.000
    In242    In       0.50000    0.25000    0.75000    1.000
    In243    In       0.25000    0.50000    0.75000    1.000
    In244    In       0.75000    0.50000    0.25000    1.000
    In245    In       0.75000    0.25000    0.50000    1.000
    In246    In       0.25000    0.75000    0.50000    1.000
    O247     O        0.73140    0.00000    0.00000    1.000
    O248     O        0.00000    0.73140    0.00000    1.000
    O249     O        0.00000    0.00000    0.73140    1.000
    O250     O        0.26860    0.26860    0.26860    1.000
    C251     C        0.00000    0.06590    0.19330    1.000
    H252     H        0.99875    0.11956    0.21120    1.000
    C253     C        0.87260    0.80670    0.80670    1.000
    H254     H        0.90836    0.78755    0.78880    1.000
    C255     C        0.12740    0.93410    0.93410    1.000
    H256     H        0.09164    0.88044    0.87919    1.000
    C257     C        0.00000    0.19330    0.06590    1.000
    H258     H        0.00125    0.21245    0.12081    1.000
    C259     C        0.19330    0.00000    0.06590    1.000
    H260     H        0.21120    0.99875    0.11956    1.000
    C261     C        0.80670    0.87260    0.80670    1.000
    H262     H        0.78880    0.90836    0.78755    1.000
    C263     C        0.93410    0.12740    0.93410    1.000
    H264     H        0.87919    0.09164    0.88044    1.000
    C265     C        0.06590    0.00000    0.19330    1.000
    H266     H        0.12081    0.00125    0.21245    1.000
    C267     C        0.06590    0.19330    0.00000    1.000
    H268     H        0.12081    0.21245    0.00125    1.000
    C269     C        0.80670    0.80670    0.87260    1.000
    H270     H        0.78880    0.78755    0.90836    1.000
    C271     C        0.93410    0.93410    0.12740    1.000
    H272     H        0.87919    0.88044    0.09164    1.000
    C273     C        0.19330    0.06590    0.00000    1.000
    H274     H        0.21120    0.11956    0.99875    1.000
    C275     C        0.93560    0.00000    0.14960    1.000
    C276     C        0.69140    0.00000    0.13840    1.000
    C277     C        0.86120    0.00000    0.12300    1.000
    C278     C        0.62340    0.00000    0.29840    1.000
    H279     H        0.60569    0.00033    0.34094    1.000
    C280     C        0.66470    0.00000    0.19470    1.000
    C282     C        0.85040    0.78600    0.85040    1.000
    C283     C        0.86160    0.55300    0.86160    1.000
    C284     C        0.87700    0.73820    0.87700    1.000
    C285     C        0.70160    0.32500    0.70160    1.000
    H286     H        0.65906    0.26474    0.65939    1.000
    C287     C        0.80530    0.47000    0.80530    1.000
    C289     C        0.14960    0.00000    0.93560    1.000
    C290     C        0.13840    0.00000    0.69140    1.000
    C291     C        0.12300    0.00000    0.86120    1.000
    C292     C        0.29840    0.00000    0.62340    1.000
    H293     H        0.34061    0.99967    0.60536    1.000
    C294     C        0.19470    0.00000    0.66470    1.000
    C296     C        0.06440    0.21400    0.06440    1.000
    C297     C        0.30860    0.44700    0.30860    1.000
    C298     C        0.13880    0.26180    0.13880    1.000
    C299     C        0.37660    0.67500    0.37660    1.000
    H300     H        0.39464    0.73526    0.39431    1.000
    C301     C        0.33530    0.53000    0.33530    1.000
    C303     C        0.14960    0.93560    0.00000    1.000
    C304     C        0.13840    0.69140    0.00000    1.000
    C305     C        0.12300    0.86120    0.00000    1.000
    C306     C        0.29840    0.62340    0.00000    1.000
    H307     H        0.34094    0.60569    0.00033    1.000
    C308     C        0.19470    0.66470    0.00000    1.000
    C310     C        0.85040    0.85040    0.78600    1.000
    C311     C        0.86160    0.86160    0.55300    1.000
    C312     C        0.87700    0.87700    0.73820    1.000
    C313     C        0.70160    0.70160    0.32500    1.000
    H314     H        0.65939    0.65906    0.26474    1.000
    C315     C        0.80530    0.80530    0.47000    1.000
    C317     C        0.93560    0.14960    0.00000    1.000
    C318     C        0.69140    0.13840    0.00000    1.000
    C319     C        0.86120    0.12300    0.00000    1.000
    C320     C        0.62340    0.29840    0.00000    1.000
    H321     H        0.60569    0.34094    0.00033    1.000
    C322     C        0.66470    0.19470    0.00000    1.000
    C324     C        0.06440    0.06440    0.21400    1.000
    C325     C        0.30860    0.30860    0.44700    1.000
    C326     C        0.13880    0.13880    0.26180    1.000
    C327     C        0.37660    0.37660    0.67500    1.000
    H328     H        0.39464    0.39431    0.73526    1.000
    C329     C        0.33530    0.33530    0.53000    1.000
    C331     C        0.00000    0.14960    0.93560    1.000
    C332     C        0.00000    0.13840    0.69140    1.000
    C333     C        0.00000    0.12300    0.86120    1.000
    C334     C        0.00000    0.29840    0.62340    1.000
    H335     H        0.99967    0.34061    0.60536    1.000
    C336     C        0.00000    0.19470    0.66470    1.000
    C338     C        0.78600    0.85040    0.85040    1.000
    C339     C        0.55300    0.86160    0.86160    1.000
    C340     C        0.73820    0.87700    0.87700    1.000
    C341     C        0.32500    0.70160    0.70160    1.000
    H342     H        0.26474    0.65906    0.65939    1.000
    C343     C        0.47000    0.80530    0.80530    1.000
    C345     C        0.00000    0.93560    0.14960    1.000
    C346     C        0.00000    0.69140    0.13840    1.000
    C347     C        0.00000    0.86120    0.12300    1.000
    C348     C        0.00000    0.62340    0.29840    1.000
    H349     H        0.99967    0.60536    0.34061    1.000
    C350     C        0.00000    0.66470    0.19470    1.000
    C352     C        0.21400    0.06440    0.06440    1.000
    C353     C        0.44700    0.30860    0.30860    1.000
    C354     C        0.26180    0.13880    0.13880    1.000
    C355     C        0.67500    0.37660    0.37660    1.000
    H356     H        0.73526    0.39464    0.39431    1.000
    C357     C        0.53000    0.33530    0.33530    1.000
