# CIF file generated by openbabel 3.1.0, see https://openbabel.org
data_I
_chemical_name_common 'ja406030p_si_006_clean'
_cell_length_a 19.1692
_cell_length_b 19.1692
_cell_length_c 35.986
_cell_angle_alpha 90
_cell_angle_beta 90
_cell_angle_gamma 120
_space_group_name_H-M_alt 'P 1'
_space_group_name_Hall 'P 1'
loop_
    _symmetry_equiv_pos_as_xyz
    x,y,z
loop_
    _atom_site_label
    _atom_site_type_symbol
    _atom_site_fract_x
    _atom_site_fract_y
    _atom_site_fract_z
    _atom_site_occupancy
    H1       H        0.10290    0.28430    0.87310    1.000
    H2       H        0.07560    0.35740    0.58040    1.000
    H3       H        0.85850    0.32550    0.84770    1.000
    H4       H        0.55420    0.91020    0.40720    1.000
    C5       C        0.72250    0.56960    0.04097    1.000
    C6       C        0.86770    0.49440    0.64069    1.000
    C7       C        0.54500    0.90290    0.97649    1.000
    C8       C        0.39220    0.49400    0.10487    1.000
    C9       C        0.24880    0.87230    0.57090    1.000
    O10      O        0.45756    0.79856    0.21015    1.000
    O11      O        0.96175    0.40575    0.04260    1.000
    O12      O        0.88676    0.36947    0.50864    1.000
    H13      H        0.71570    0.81860    0.87310    1.000
    H14      H        0.64260    0.71820    0.58040    1.000
    H15      H        0.67450    0.53300    0.84770    1.000
    H16      H        0.08980    0.64400    0.40720    1.000
    C17      C        0.43040    0.15290    0.04097    1.000
    C18      C        0.50560    0.37330    0.64069    1.000
    C19      C        0.09710    0.64210    0.97649    1.000
    C20      C        0.50600    0.89820    0.10487    1.000
    C21      C        0.12770    0.37650    0.57090    1.000
    O22      O        0.20144    0.65900    0.21015    1.000
    O23      O        0.59425    0.55600    0.04260    1.000
    O24      O        0.63053    0.51729    0.50864    1.000
    H25      H        0.18140    0.89710    0.87310    1.000
    H26      H        0.28180    0.92440    0.58040    1.000
    H27      H        0.46700    0.14150    0.84770    1.000
    H28      H        0.35600    0.44580    0.40720    1.000
    C29      C        0.84710    0.27750    0.04097    1.000
    C30      C        0.62670    0.13230    0.64069    1.000
    C31      C        0.35790    0.45500    0.97649    1.000
    C32      C        0.10180    0.60780    0.10487    1.000
    C33      C        0.62350    0.75120    0.57090    1.000
    O34      O        0.34100    0.54244    0.21015    1.000
    O35      O        0.44400    0.03825    0.04260    1.000
    O36      O        0.48271    0.11324    0.50864    1.000
    H37      H        0.89710    0.71570    0.37310    1.000
    H38      H        0.92440    0.64260    0.08040    1.000
    H39      H        0.14150    0.67450    0.34770    1.000
    H40      H        0.44580    0.08980    0.90720    1.000
    C41      C        0.27750    0.43040    0.54097    1.000
    C42      C        0.13230    0.50560    0.14069    1.000
    C43      C        0.45500    0.09710    0.47649    1.000
    C44      C        0.60780    0.50600    0.60487    1.000
    C45      C        0.75120    0.12770    0.07090    1.000
    O46      O        0.54244    0.20144    0.71015    1.000
    O47      O        0.03825    0.59425    0.54260    1.000
    O48      O        0.11324    0.63053    0.00864    1.000
    H49      H        0.28430    0.18140    0.37310    1.000
    H50      H        0.35740    0.28180    0.08040    1.000
    H51      H        0.32550    0.46700    0.34770    1.000
    H52      H        0.91020    0.35600    0.90720    1.000
    C53      C        0.56960    0.84710    0.54097    1.000
    C54      C        0.49440    0.62670    0.14069    1.000
    C55      C        0.90290    0.35790    0.47649    1.000
    C56      C        0.49400    0.10180    0.60487    1.000
    C57      C        0.87230    0.62350    0.07090    1.000
    O58      O        0.79856    0.34100    0.71015    1.000
    O59      O        0.40575    0.44400    0.54260    1.000
    O60      O        0.36947    0.48271    0.00864    1.000
    H61      H        0.81860    0.10290    0.37310    1.000
    H62      H        0.71820    0.07560    0.08040    1.000
    H63      H        0.53300    0.85850    0.34770    1.000
    H64      H        0.64400    0.55420    0.90720    1.000
    C65      C        0.15290    0.72250    0.54097    1.000
    C66      C        0.37330    0.86770    0.14069    1.000
    C67      C        0.64210    0.54500    0.47649    1.000
    C68      C        0.89820    0.39220    0.60487    1.000
    C69      C        0.37650    0.24880    0.07090    1.000
    O70      O        0.65900    0.45756    0.71015    1.000
    O71      O        0.55600    0.96175    0.54260    1.000
    O72      O        0.51729    0.88676    0.00864    1.000
    H73      H        0.28430    0.10290    0.12690    1.000
    H74      H        0.35740    0.07560    0.41960    1.000
    H75      H        0.32550    0.85850    0.15230    1.000
    H76      H        0.91020    0.55420    0.59280    1.000
    C77      C        0.56960    0.72250    0.95903    1.000
    C78      C        0.49440    0.86770    0.35931    1.000
    C79      C        0.90290    0.54500    0.02351    1.000
    C80      C        0.49400    0.39220    0.89513    1.000
    C81      C        0.87230    0.24880    0.42910    1.000
    O82      O        0.79856    0.45756    0.78985    1.000
    O83      O        0.40575    0.96175    0.95740    1.000
    O84      O        0.36947    0.88676    0.49136    1.000
    H85      H        0.81860    0.71570    0.12690    1.000
    H86      H        0.71820    0.64260    0.41960    1.000
    H87      H        0.53300    0.67450    0.15230    1.000
    H88      H        0.64400    0.08980    0.59280    1.000
    C89      C        0.15290    0.43040    0.95903    1.000
    C90      C        0.37330    0.50560    0.35931    1.000
    C91      C        0.64210    0.09710    0.02351    1.000
    C92      C        0.89820    0.50600    0.89513    1.000
    C93      C        0.37650    0.12770    0.42910    1.000
    O94      O        0.65900    0.20144    0.78985    1.000
    O95      O        0.55600    0.59425    0.95740    1.000
    O96      O        0.51729    0.63053    0.49136    1.000
    H97      H        0.89710    0.18140    0.12690    1.000
    H98      H        0.92440    0.28180    0.41960    1.000
    H99      H        0.14150    0.46700    0.15230    1.000
    H100     H        0.44580    0.35600    0.59280    1.000
    C101     C        0.27750    0.84710    0.95903    1.000
    C102     C        0.13230    0.62670    0.35931    1.000
    C103     C        0.45500    0.35790    0.02351    1.000
    C104     C        0.60780    0.10180    0.89513    1.000
    C105     C        0.75120    0.62350    0.42910    1.000
    O106     O        0.54244    0.34100    0.78985    1.000
    O107     O        0.03825    0.44400    0.95740    1.000
    O108     O        0.11324    0.48271    0.49136    1.000
    H109     H        0.71570    0.89710    0.62690    1.000
    H110     H        0.64260    0.92440    0.91960    1.000
    H111     H        0.67450    0.14150    0.65230    1.000
    H112     H        0.08980    0.44580    0.09280    1.000
    C113     C        0.43040    0.27750    0.45903    1.000
    C114     C        0.50560    0.13230    0.85931    1.000
    C115     C        0.09710    0.45500    0.52351    1.000
    C116     C        0.50600    0.60780    0.39513    1.000
    C117     C        0.12770    0.75120    0.92910    1.000
    O118     O        0.20144    0.54244    0.28985    1.000
    O119     O        0.59425    0.03825    0.45740    1.000
    O120     O        0.63053    0.11324    0.99136    1.000
    H121     H        0.18140    0.28430    0.62690    1.000
    H122     H        0.28180    0.35740    0.91960    1.000
    H123     H        0.46700    0.32550    0.65230    1.000
    H124     H        0.35600    0.91020    0.09280    1.000
    C125     C        0.84710    0.56960    0.45903    1.000
    C126     C        0.62670    0.49440    0.85931    1.000
    C127     C        0.35790    0.90290    0.52351    1.000
    C128     C        0.10180    0.49400    0.39513    1.000
    C129     C        0.62350    0.87230    0.92910    1.000
    O130     O        0.34100    0.79856    0.28985    1.000
    O131     O        0.44400    0.40575    0.45740    1.000
    O132     O        0.48271    0.36947    0.99136    1.000
    H133     H        0.10290    0.81860    0.62690    1.000
    H134     H        0.07560    0.71820    0.91960    1.000
    H135     H        0.85850    0.53300    0.65230    1.000
    H136     H        0.55420    0.64400    0.09280    1.000
    C137     C        0.72250    0.15290    0.45903    1.000
    C138     C        0.86770    0.37330    0.85931    1.000
    C139     C        0.54500    0.64210    0.52351    1.000
    C140     C        0.39220    0.89820    0.39513    1.000
    C141     C        0.24880    0.37650    0.92910    1.000
    O142     O        0.45756    0.65900    0.28985    1.000
    O143     O        0.96175    0.55600    0.45740    1.000
    O144     O        0.88676    0.51729    0.99136    1.000
    H145     H        0.89710    0.71570    0.12690    1.000
    H146     H        0.92440    0.64260    0.41960    1.000
    H147     H        0.14150    0.67450    0.15230    1.000
    H148     H        0.44580    0.08980    0.59280    1.000
    C149     C        0.27750    0.43040    0.95903    1.000
    C150     C        0.13230    0.50560    0.35931    1.000
    C151     C        0.45500    0.09710    0.02351    1.000
    C152     C        0.60780    0.50600    0.89513    1.000
    C153     C        0.75120    0.12770    0.42910    1.000
    O154     O        0.54244    0.20144    0.78985    1.000
    O155     O        0.03825    0.59425    0.95740    1.000
    O156     O        0.11324    0.63053    0.49136    1.000
    H157     H        0.28430    0.18140    0.12690    1.000
    H158     H        0.35740    0.28180    0.41960    1.000
    H159     H        0.32550    0.46700    0.15230    1.000
    H160     H        0.91020    0.35600    0.59280    1.000
    C161     C        0.56960    0.84710    0.95903    1.000
    C162     C        0.49440    0.62670    0.35931    1.000
    C163     C        0.90290    0.35790    0.02351    1.000
    C164     C        0.49400    0.10180    0.89513    1.000
    C165     C        0.87230    0.62350    0.42910    1.000
    O166     O        0.79856    0.34100    0.78985    1.000
    O167     O        0.40575    0.44400    0.95740    1.000
    O168     O        0.36947    0.48271    0.49136    1.000
    H169     H        0.81860    0.10290    0.12690    1.000
    H170     H        0.71820    0.07560    0.41960    1.000
    H171     H        0.53300    0.85850    0.15230    1.000
    H172     H        0.64400    0.55420    0.59280    1.000
    C173     C        0.15290    0.72250    0.95903    1.000
    C174     C        0.37330    0.86770    0.35931    1.000
    C175     C        0.64210    0.54500    0.02351    1.000
    C176     C        0.89820    0.39220    0.89513    1.000
    C177     C        0.37650    0.24880    0.42910    1.000
    O178     O        0.65900    0.45756    0.78985    1.000
    O179     O        0.55600    0.96175    0.95740    1.000
    O180     O        0.51729    0.88676    0.49136    1.000
    H181     H        0.10290    0.28430    0.62690    1.000
    H182     H        0.07560    0.35740    0.91960    1.000
    H183     H        0.85850    0.32550    0.65230    1.000
    H184     H        0.55420    0.91020    0.09280    1.000
    C185     C        0.72250    0.56960    0.45903    1.000
    C186     C        0.86770    0.49440    0.85931    1.000
    C187     C        0.54500    0.90290    0.52351    1.000
    C188     C        0.39220    0.49400    0.39513    1.000
    C189     C        0.24880    0.87230    0.92910    1.000
    O190     O        0.45756    0.79856    0.28985    1.000
    O191     O        0.96175    0.40575    0.45740    1.000
    O192     O        0.88676    0.36947    0.99136    1.000
    H193     H        0.71570    0.81860    0.62690    1.000
    H194     H        0.64260    0.71820    0.91960    1.000
    H195     H        0.67450    0.53300    0.65230    1.000
    H196     H        0.08980    0.64400    0.09280    1.000
    C197     C        0.43040    0.15290    0.45903    1.000
    C198     C        0.50560    0.37330    0.85931    1.000
    C199     C        0.09710    0.64210    0.52351    1.000
    C200     C        0.50600    0.89820    0.39513    1.000
    C201     C        0.12770    0.37650    0.92910    1.000
    O202     O        0.20144    0.65900    0.28985    1.000
    O203     O        0.59425    0.55600    0.45740    1.000
    O204     O        0.63053    0.51729    0.99136    1.000
    H205     H        0.18140    0.89710    0.62690    1.000
    H206     H        0.28180    0.92440    0.91960    1.000
    H207     H        0.46700    0.14150    0.65230    1.000
    H208     H        0.35600    0.44580    0.09280    1.000
    C209     C        0.84710    0.27750    0.45903    1.000
    C210     C        0.62670    0.13230    0.85931    1.000
    C211     C        0.35790    0.45500    0.52351    1.000
    C212     C        0.10180    0.60780    0.39513    1.000
    C213     C        0.62350    0.75120    0.92910    1.000
    O214     O        0.34100    0.54244    0.28985    1.000
    O215     O        0.44400    0.03825    0.45740    1.000
    O216     O        0.48271    0.11324    0.99136    1.000
    H217     H        0.71570    0.89710    0.87310    1.000
    H218     H        0.64260    0.92440    0.58040    1.000
    H219     H        0.67450    0.14150    0.84770    1.000
    H220     H        0.08980    0.44580    0.40720    1.000
    C221     C        0.43040    0.27750    0.04097    1.000
    C222     C        0.50560    0.13230    0.64069    1.000
    C223     C        0.09710    0.45500    0.97649    1.000
    C224     C        0.50600    0.60780    0.10487    1.000
    C225     C        0.12770    0.75120    0.57090    1.000
    O226     O        0.20144    0.54244    0.21015    1.000
    O227     O        0.59425    0.03825    0.04260    1.000
    O228     O        0.63053    0.11324    0.50864    1.000
    H229     H        0.18140    0.28430    0.87310    1.000
    H230     H        0.28180    0.35740    0.58040    1.000
    H231     H        0.46700    0.32550    0.84770    1.000
    H232     H        0.35600    0.91020    0.40720    1.000
    C233     C        0.84710    0.56960    0.04097    1.000
    C234     C        0.62670    0.49440    0.64069    1.000
    C235     C        0.35790    0.90290    0.97649    1.000
    C236     C        0.10180    0.49400    0.10487    1.000
    C237     C        0.62350    0.87230    0.57090    1.000
    O238     O        0.34100    0.79856    0.21015    1.000
    O239     O        0.44400    0.40575    0.04260    1.000
    O240     O        0.48271    0.36947    0.50864    1.000
    H241     H        0.10290    0.81860    0.87310    1.000
    H242     H        0.07560    0.71820    0.58040    1.000
    H243     H        0.85850    0.53300    0.84770    1.000
    H244     H        0.55420    0.64400    0.40720    1.000
    C245     C        0.72250    0.15290    0.04097    1.000
    C246     C        0.86770    0.37330    0.64069    1.000
    C247     C        0.54500    0.64210    0.97649    1.000
    C248     C        0.39220    0.89820    0.10487    1.000
    C249     C        0.24880    0.37650    0.57090    1.000
    O250     O        0.45756    0.65900    0.21015    1.000
    O251     O        0.96175    0.55600    0.04260    1.000
    O252     O        0.88676    0.51729    0.50864    1.000
    H253     H        0.28430    0.10290    0.37310    1.000
    H254     H        0.35740    0.07560    0.08040    1.000
    H255     H        0.32550    0.85850    0.34770    1.000
    H256     H        0.91020    0.55420    0.90720    1.000
    C257     C        0.56960    0.72250    0.54097    1.000
    C258     C        0.49440    0.86770    0.14069    1.000
    C259     C        0.90290    0.54500    0.47649    1.000
    C260     C        0.49400    0.39220    0.60487    1.000
    C261     C        0.87230    0.24880    0.07090    1.000
    O262     O        0.79856    0.45756    0.71015    1.000
    O263     O        0.40575    0.96175    0.54260    1.000
    O264     O        0.36947    0.88676    0.00864    1.000
    H265     H        0.81860    0.71570    0.37310    1.000
    H266     H        0.71820    0.64260    0.08040    1.000
    H267     H        0.53300    0.67450    0.34770    1.000
    H268     H        0.64400    0.08980    0.90720    1.000
    C269     C        0.15290    0.43040    0.54097    1.000
    C270     C        0.37330    0.50560    0.14069    1.000
    C271     C        0.64210    0.09710    0.47649    1.000
    C272     C        0.89820    0.50600    0.60487    1.000
    C273     C        0.37650    0.12770    0.07090    1.000
    O274     O        0.65900    0.20144    0.71015    1.000
    O275     O        0.55600    0.59425    0.54260    1.000
    O276     O        0.51729    0.63053    0.00864    1.000
    H277     H        0.89710    0.18140    0.37310    1.000
    H278     H        0.92440    0.28180    0.08040    1.000
    H279     H        0.14150    0.46700    0.34770    1.000
    H280     H        0.44580    0.35600    0.90720    1.000
    C281     C        0.27750    0.84710    0.54097    1.000
    C282     C        0.13230    0.62670    0.14069    1.000
    C283     C        0.45500    0.35790    0.47649    1.000
    C284     C        0.60780    0.10180    0.60487    1.000
    C285     C        0.75120    0.62350    0.07090    1.000
    O286     O        0.54244    0.34100    0.71015    1.000
    O287     O        0.03825    0.44400    0.54260    1.000
    O288     O        0.11324    0.48271    0.00864    1.000
    Zn289    Zn       0.04600    0.52300    0.46576    1.000
    Zn290    Zn       0.47700    0.52300    0.46576    1.000
    Zn291    Zn       0.47700    0.95400    0.46576    1.000
    Zn292    Zn       0.95400    0.47700    0.96576    1.000
    Zn293    Zn       0.52300    0.47700    0.96576    1.000
    Zn294    Zn       0.52300    0.04600    0.96576    1.000
    Zn295    Zn       0.52300    0.04600    0.53424    1.000
    Zn296    Zn       0.52300    0.47700    0.53424    1.000
    Zn297    Zn       0.95400    0.47700    0.53424    1.000
    Zn298    Zn       0.47700    0.95400    0.03424    1.000
    Zn299    Zn       0.47700    0.52300    0.03424    1.000
    Zn300    Zn       0.04600    0.52300    0.03424    1.000
    Cr301    Cr       0.72416    0.44832    0.75000    1.000
    Cr302    Cr       0.55168    0.27584    0.75000    1.000
    Cr303    Cr       0.72416    0.27584    0.75000    1.000
    Cr304    Cr       0.27584    0.55168    0.25000    1.000
    Cr305    Cr       0.44832    0.72416    0.25000    1.000
    Cr306    Cr       0.27584    0.72416    0.25000    1.000
    H307     H        0.76275    0.23725    0.00020    1.000
    C308     C        0.17515    0.82485    0.58700    1.000
    N309     N        0.54444    0.45556    0.91296    1.000
    H310     H        0.76275    0.52550    0.00020    1.000
    C311     C        0.17515    0.35030    0.58700    1.000
    N312     N        0.54444    0.08888    0.91296    1.000
    H313     H        0.47450    0.23725    0.00020    1.000
    C314     C        0.64970    0.82485    0.58700    1.000
    N315     N        0.91112    0.45556    0.91296    1.000
    H316     H        0.23725    0.76275    0.50020    1.000
    C317     C        0.82485    0.17515    0.08700    1.000
    N318     N        0.45556    0.54444    0.41296    1.000
    H319     H        0.23725    0.47450    0.50020    1.000
    C320     C        0.82485    0.64970    0.08700    1.000
    N321     N        0.45556    0.91112    0.41296    1.000
    H322     H        0.52550    0.76275    0.50020    1.000
    C323     C        0.35030    0.17515    0.08700    1.000
    N324     N        0.08888    0.54444    0.41296    1.000
    H325     H        0.23725    0.76275    0.99980    1.000
    C326     C        0.82485    0.17515    0.41300    1.000
    N327     N        0.45556    0.54444    0.08704    1.000
    H328     H        0.52550    0.76275    0.99980    1.000
    C329     C        0.35030    0.17515    0.41300    1.000
    N330     N        0.08888    0.54444    0.08704    1.000
    H331     H        0.23725    0.47450    0.99980    1.000
    C332     C        0.82485    0.64970    0.41300    1.000
    N333     N        0.45556    0.91112    0.08704    1.000
    H334     H        0.76275    0.23725    0.49980    1.000
    C335     C        0.17515    0.82485    0.91300    1.000
    N336     N        0.54444    0.45556    0.58704    1.000
    H337     H        0.47450    0.23725    0.49980    1.000
    C338     C        0.64970    0.82485    0.91300    1.000
    N339     N        0.91112    0.45556    0.58704    1.000
    H340     H        0.76275    0.52550    0.49980    1.000
    C341     C        0.17515    0.35030    0.91300    1.000
    N342     N        0.54444    0.08888    0.58704    1.000
    C343     C        0.85184    0.42592    0.84171    1.000
    C344     C        0.44920    0.22460    0.47645    1.000
    N345     N        0.30030    0.15015    0.11730    1.000
    C346     C        0.57408    0.42592    0.84171    1.000
    C347     C        0.77540    0.22460    0.47645    1.000
    N348     N        0.84985    0.15015    0.11730    1.000
    C349     C        0.57408    0.14816    0.84171    1.000
    C350     C        0.77540    0.55080    0.47645    1.000
    N351     N        0.84985    0.69970    0.11730    1.000
    C352     C        0.14816    0.57408    0.34171    1.000
    C353     C        0.55080    0.77540    0.97645    1.000
    N354     N        0.69970    0.84985    0.61730    1.000
    C355     C        0.42592    0.57408    0.34171    1.000
    C356     C        0.22460    0.77540    0.97645    1.000
    N357     N        0.15015    0.84985    0.61730    1.000
    C358     C        0.42592    0.85184    0.34171    1.000
    C359     C        0.22460    0.44920    0.97645    1.000
    N360     N        0.15015    0.30030    0.61730    1.000
    C361     C        0.42592    0.85184    0.15829    1.000
    C362     C        0.22460    0.44920    0.52355    1.000
    N363     N        0.15015    0.30030    0.88270    1.000
    C364     C        0.42592    0.57408    0.15829    1.000
    C365     C        0.22460    0.77540    0.52355    1.000
    N366     N        0.15015    0.84985    0.88270    1.000
    C367     C        0.14816    0.57408    0.15829    1.000
    C368     C        0.55080    0.77540    0.52355    1.000
    N369     N        0.69970    0.84985    0.88270    1.000
    C370     C        0.57408    0.14816    0.65829    1.000
    C371     C        0.77540    0.55080    0.02355    1.000
    N372     N        0.84985    0.69970    0.38270    1.000
    C373     C        0.57408    0.42592    0.65829    1.000
    C374     C        0.77540    0.22460    0.02355    1.000
    N375     N        0.84985    0.15015    0.38270    1.000
    C376     C        0.85184    0.42592    0.65829    1.000
    C377     C        0.44920    0.22460    0.02355    1.000
    N378     N        0.30030    0.15015    0.38270    1.000
    C379     C        0.40668    0.81336    0.19635    1.000
    C380     C        0.18664    0.59332    0.19635    1.000
    C381     C        0.40668    0.59332    0.19635    1.000
    C382     C        0.59332    0.18664    0.69635    1.000
    C383     C        0.81336    0.40668    0.69635    1.000
    C384     C        0.59332    0.40668    0.69635    1.000
    C385     C        0.81336    0.40668    0.80365    1.000
    C386     C        0.59332    0.18664    0.80365    1.000
    C387     C        0.59332    0.40668    0.80365    1.000
    C388     C        0.18664    0.59332    0.30365    1.000
    C389     C        0.40668    0.81336    0.30365    1.000
    C390     C        0.40668    0.59332    0.30365    1.000
    O391     O        0.66667    0.33333    0.75000    1.000
    O392     O        0.33333    0.66667    0.25000    1.000
