# CIF file generated by openbabel 3.1.0, see https://openbabel.org
data_I
_chemical_name_common 'MOFBIU_clean'
_cell_length_a 13.0642
_cell_length_b 13.5884
_cell_length_c 19.2967
_cell_angle_alpha 90
_cell_angle_beta 90
_cell_angle_gamma 90
_space_group_name_H-M_alt 'P 1'
_space_group_name_Hall 'P 1'
loop_
    _symmetry_equiv_pos_as_xyz
    x,y,z
loop_
    _atom_site_label
    _atom_site_type_symbol
    _atom_site_fract_x
    _atom_site_fract_y
    _atom_site_fract_z
    _atom_site_occupancy
    Cd1      Cd       0.70620    0.37537    0.22219    1.000
    Cd2      Cd       0.29380    0.87537    0.77781    1.000
    Cd3      Cd       0.20620    0.37537    0.27781    1.000
    Cd4      Cd       0.79380    0.87537    0.72219    1.000
    H1       H        0.07750    0.76040    0.78860    1.000
    H2       H        0.67290    0.44190    0.48920    1.000
    H3       H        0.78640    0.15010    0.86840    1.000
    H4       H        0.63990    0.40090    0.90920    1.000
    H5       H        0.50510    0.20860    0.55130    1.000
    H6       H        0.99490    0.70860    0.05130    1.000
    H7       H        0.43910    0.54250    0.37810    1.000
    H8       H        0.04050    0.20220    0.13320    1.000
    H9       H        0.54360    0.41720    0.78970    1.000
    H10      H        0.60560    0.51540    0.68780    1.000
    H11      H        0.18450    0.69620    0.37290    1.000
    H12      H        0.46180    0.62830    0.77710    1.000
    H13      H        0.06090    0.04250    0.87810    1.000
    H14      H        0.04390    0.55160    0.95350    1.000
    H15      H        0.92250    0.26040    0.21140    1.000
    H16      H        0.95610    0.05160    0.04650    1.000
    H17      H        0.57750    0.76040    0.71140    1.000
    H18      H        0.65240    0.23550    0.92170    1.000
    H19      H        0.53820    0.12830    0.22290    1.000
    H20      H        0.96180    0.62830    0.72290    1.000
    H21      H        0.70130    0.55740    0.85560    1.000
    H22      H        0.54390    0.55160    0.54650    1.000
    H23      H        0.13990    0.40090    0.59080    1.000
    H24      H        0.14270    0.02180    0.43020    1.000
    H25      H        0.81550    0.19620    0.62710    1.000
    H26      H        0.52040    0.48790    0.28120    1.000
    H27      H        0.09470    0.25870    0.98930    1.000
    H28      H        0.47960    0.98790    0.71880    1.000
    H29      H        0.34760    0.73550    0.07830    1.000
    H30      H        0.42250    0.26040    0.28860    1.000
    H31      H        0.04120    0.97290    0.03370    1.000
    H32      H        0.24530    0.38480    0.10980    1.000
    H33      H        0.15240    0.23550    0.57830    1.000
    H34      H        0.22320    0.60170    0.87330    1.000
    H35      H        0.27680    0.10170    0.37330    1.000
    H36      H        0.36240    0.30690    0.51830    1.000
    H37      H        0.32710    0.94190    0.51080    1.000
    H38      H        0.01810    0.81910    0.28690    1.000
    H39      H        0.89440    0.01540    0.18780    1.000
    H40      H        0.09010    0.73070    0.19030    1.000
    H41      H        0.86640    0.59360    0.02880    1.000
    H42      H        0.68450    0.69620    0.12710    1.000
    H43      H        0.07030    0.11290    0.73140    1.000
    H44      H        0.98190    0.31910    0.71310    1.000
    H45      H        0.95880    0.47290    0.96630    1.000
    H46      H        0.45950    0.70220    0.63320    1.000
    H47      H        0.74530    0.38480    0.39020    1.000
    H48      H        0.97960    0.98790    0.78120    1.000
    H49      H        0.74750    0.86260    0.56290    1.000
    H50      H        0.40990    0.23070    0.69030    1.000
    H51      H        0.25470    0.88480    0.60980    1.000
    H52      H        0.64270    0.02180    0.06980    1.000
    H53      H        0.57030    0.11290    0.76860    1.000
    H54      H        0.45610    0.05160    0.45350    1.000
    H55      H        0.72320    0.60170    0.62670    1.000
    H56      H        0.02040    0.48790    0.21880    1.000
    H57      H        0.39440    0.01540    0.31220    1.000
    H58      H        0.36010    0.90090    0.09080    1.000
    H59      H        0.79870    0.05740    0.35560    1.000
    H60      H        0.62780    0.85190    0.07820    1.000
    H61      H        0.77680    0.10170    0.12670    1.000
    H62      H        0.13760    0.80690    0.01830    1.000
    H63      H        0.56090    0.04250    0.62190    1.000
    H64      H        0.87220    0.35190    0.57820    1.000
    H65      H        0.25250    0.36260    0.43710    1.000
    H66      H        0.63760    0.80690    0.48170    1.000
    H67      H        0.92970    0.61290    0.26860    1.000
    H68      H        0.93910    0.54250    0.12190    1.000
    H69      H        0.86240    0.30690    0.98170    1.000
    H70      H        0.62450    0.11350    0.44900    1.000
    H71      H        0.87550    0.61350    0.94900    1.000
    H72      H        0.28640    0.15010    0.63160    1.000
    H73      H        0.59010    0.73070    0.30970    1.000
    H74      H        0.54120    0.97290    0.46630    1.000
    H75      H        0.90990    0.23070    0.80970    1.000
    H76      H        0.54050    0.20220    0.36680    1.000
    H77      H        0.03820    0.12830    0.27710    1.000
    H78      H        0.36640    0.59360    0.47120    1.000
    H79      H        0.48190    0.31910    0.78690    1.000
    H80      H        0.10560    0.51540    0.81220    1.000
    H81      H        0.45640    0.91720    0.21030    1.000
    H82      H        0.63360    0.09360    0.52880    1.000
    H83      H        0.49490    0.70860    0.44870    1.000
    H84      H        0.20130    0.55740    0.64440    1.000
    H85      H        0.21360    0.65010    0.13160    1.000
    H86      H        0.45880    0.47290    0.53370    1.000
    H87      H        0.00510    0.20860    0.94870    1.000
    H88      H        0.31550    0.19620    0.87290    1.000
    H89      H        0.17290    0.44190    0.01080    1.000
    H90      H        0.24750    0.86260    0.93710    1.000
    H91      H        0.71360    0.65010    0.36840    1.000
    H92      H        0.95640    0.91720    0.28970    1.000
    H93      H        0.29870    0.05740    0.14440    1.000
    H94      H        0.04360    0.41720    0.71030    1.000
    H95      H        0.35730    0.52180    0.93020    1.000
    H96      H        0.40530    0.75870    0.48930    1.000
    H97      H        0.12450    0.11350    0.05100    1.000
    H98      H        0.37220    0.35190    0.92180    1.000
    H99      H        0.59470    0.25870    0.51070    1.000
    H100     H        0.75250    0.36260    0.06290    1.000
    H101     H        0.82710    0.94190    0.98920    1.000
    H102     H        0.95950    0.70220    0.86680    1.000
    H103     H        0.75470    0.88480    0.89020    1.000
    H104     H        0.90530    0.75870    0.01070    1.000
    H105     H        0.13360    0.09360    0.97120    1.000
    H106     H        0.85730    0.52180    0.56980    1.000
    H107     H        0.86010    0.90090    0.40920    1.000
    H108     H        0.84760    0.73550    0.42170    1.000
    H109     H        0.12780    0.85190    0.42180    1.000
    H110     H        0.42970    0.61290    0.23140    1.000
    H111     H        0.37550    0.61350    0.55100    1.000
    H112     H        0.51810    0.81910    0.21310    1.000
    C1       C        0.69390    0.36740    0.88840    1.000
    C2       C        0.83430    0.87720    0.17460    1.000
    C3       C        0.69880    0.17550    0.69270    1.000
    C4       C        0.40320    0.82340    0.28320    1.000
    C5       C        0.73750    0.72830    0.15010    1.000
    C6       C        0.44890    0.97700    0.67600    1.000
    C7       C        0.53490    0.74690    0.54660    1.000
    C8       C        0.81020    0.48580    0.59560    1.000
    C9       C        0.01800    0.73430    0.88240    1.000
    C10      C        0.18980    0.98580    0.40440    1.000
    C11      C        0.76730    0.42080    0.84930    1.000
    C12      C        0.90890    0.52200    0.76570    1.000
    C13      C        0.31710    0.91750    0.61250    1.000
    C14      C        0.21710    0.71820    0.13570    1.000
    C15      C        0.18890    0.82950    0.92260    1.000
    C16      C        0.31020    0.48580    0.90440    1.000
    C17      C        0.49800    0.01100    0.61790    1.000
    C18      C        0.98200    0.23430    0.11760    1.000
    C19      C        0.04620    0.49830    0.05370    1.000
    C20      C        0.32310    0.57280    0.70580    1.000
    C21      C        0.19390    0.36740    0.61160    1.000
    C22      C        0.75570    0.52340    0.83580    1.000
    C23      C        0.74910    0.33090    0.64060    1.000
    C24      C        0.81710    0.91750    0.88750    1.000
    C25      C        0.24910    0.33090    0.85940    1.000
    C26      C        0.07490    0.92300    0.22150    1.000
    C27      C        0.05110    0.47700    0.17600    1.000
    C28      C        0.15930    0.48190    0.83330    1.000
    C29      C        0.23270    0.92080    0.15070    1.000
    C30      C        0.79900    0.76950    0.39590    1.000
    C31      C        0.67690    0.07280    0.29420    1.000
    C32      C        0.91400    0.61010    0.99190    1.000
    C33      C        0.84070    0.98190    0.16670    1.000
    C34      C        0.19650    0.17960    0.22420    1.000
    C35      C        0.38360    0.72300    0.27430    1.000
    C36      C        0.48200    0.23430    0.38240    1.000
    C37      C        0.31110    0.32950    0.42260    1.000
    C38      C        0.64830    0.87050    0.31910    1.000
    C39      C        0.80610    0.86740    0.38840    1.000
    C40      C        0.87690    0.29630    0.02830    1.000
    C41      C        0.17690    0.07280    0.20580    1.000
    C42      C        0.35580    0.26600    0.67140    1.000
    C43      C        0.62310    0.79630    0.52830    1.000
    C44      C        0.82310    0.57280    0.79420    1.000
    C45      C        0.25090    0.83090    0.35940    1.000
    C46      C        0.88360    0.72300    0.22570    1.000
    C47      C        0.18290    0.41750    0.11250    1.000
    C48      C        0.00810    0.03030    0.01390    1.000
    C49      C        0.81110    0.32950    0.07740    1.000
    C50      C        0.54620    0.49830    0.44630    1.000
    C51      C        0.99800    0.01100    0.88210    1.000
    C52      C        0.31930    0.38430    0.89900    1.000
    C53      C        0.09680    0.32340    0.78320    1.000
    C54      C        0.27090    0.03360    0.37030    1.000
    C55      C        0.55110    0.47700    0.32400    1.000
    C56      C        0.68070    0.88430    0.10100    1.000
    C57      C        0.00200    0.51100    0.11790    1.000
    C58      C        0.45380    0.99830    0.55370    1.000
    C59      C        0.08600    0.11010    0.00810    1.000
    C60      C        0.69650    0.17960    0.27580    1.000
    C61      C        0.59680    0.32340    0.71680    1.000
    C62      C        0.03490    0.74690    0.95340    1.000
    C63      C        0.33430    0.87720    0.32540    1.000
    C64      C        0.64420    0.76600    0.32860    1.000
    C65      C        0.40890    0.52200    0.73430    1.000
    C66      C        0.37690    0.29630    0.47170    1.000
    C67      C        0.58600    0.11010    0.49190    1.000
    C68      C        0.01220    0.37020    0.74160    1.000
    C69      C        0.41050    0.27000    0.33560    1.000
    C70      C        0.80350    0.67960    0.77580    1.000
    C71      C        0.68890    0.82950    0.57740    1.000
    C72      C        0.85170    0.37050    0.81910    1.000
    C73      C        0.51220    0.37020    0.75840    1.000
    C74      C        0.49190    0.53030    0.51390    1.000
    C75      C        0.14420    0.76600    0.17140    1.000
    C76      C        0.11640    0.22300    0.77430    1.000
    C77      C        0.80120    0.67550    0.19270    1.000
    C78      C        0.25570    0.52340    0.66420    1.000
    C79      C        0.68290    0.41750    0.38750    1.000
    C80      C        0.51800    0.73430    0.61760    1.000
    C81      C        0.65930    0.48190    0.66670    1.000
    C82      C        0.26730    0.42080    0.65070    1.000
    C83      C        0.68980    0.98580    0.09560    1.000
    C84      C        0.30610    0.86740    0.11160    1.000
    C85      C        0.48780    0.87020    0.24160    1.000
    C86      C        0.77090    0.03360    0.12970    1.000
    C87      C        0.92510    0.42300    0.77850    1.000
    C88      C        0.12310    0.79630    0.97170    1.000
    C89      C        0.22910    0.53360    0.87030    1.000
    C90      C        0.27790    0.56810    0.29370    1.000
    C91      C        0.46510    0.24690    0.45340    1.000
    C92      C        0.91050    0.27000    0.16440    1.000
    C93      C        0.66570    0.37720    0.67460    1.000
    C94      C        0.22210    0.06810    0.79370    1.000
    C95      C        0.16570    0.37720    0.82540    1.000
    C96      C        0.19880    0.17550    0.80730    1.000
    C97      C        0.41400    0.61010    0.50810    1.000
    C98      C        0.74430    0.02340    0.33580    1.000
    C99      C        0.96510    0.24690    0.04660    1.000
    C100     C        0.46040    0.71120    0.49320    1.000
    C101     C        0.71710    0.71820    0.36430    1.000
    C102     C        0.76250    0.22830    0.65010    1.000
    C103     C        0.63920    0.45110    0.44720    1.000
    C104     C        0.20100    0.26950    0.60410    1.000
    C105     C        0.72210    0.06810    0.70630    1.000
    C106     C        0.58950    0.77000    0.66440    1.000
    C107     C        0.81930    0.38430    0.60100    1.000
    C108     C        0.34070    0.98190    0.33330    1.000
    C109     C        0.24430    0.02340    0.16420    1.000
    C110     C        0.86080    0.95110    0.94720    1.000
    C111     C        0.99190    0.53030    0.98610    1.000
    C112     C        0.18070    0.88430    0.39900    1.000
    C113     C        0.50810    0.03030    0.48610    1.000
    C114     C        0.23750    0.72830    0.34990    1.000
    C115     C        0.36080    0.95110    0.55280    1.000
    C116     C        0.98780    0.87020    0.25840    1.000
    C117     C        0.78290    0.21820    0.86430    1.000
    C118     C        0.30120    0.67550    0.30730    1.000
    C119     C        0.26250    0.22830    0.84990    1.000
    C120     C        0.90320    0.82340    0.21680    1.000
    C121     C        0.70100    0.26950    0.89590    1.000
    C122     C        0.30350    0.67960    0.72420    1.000
    C123     C        0.59110    0.02200    0.26570    1.000
    C124     C        0.57490    0.92300    0.27850    1.000
    C125     C        0.35170    0.37050    0.68090    1.000
    C126     C        0.14830    0.87050    0.18090    1.000
    C127     C        0.13920    0.45110    0.05280    1.000
    C128     C        0.03960    0.21120    0.99320    1.000
    C129     C        0.75090    0.83090    0.14060    1.000
    C130     C        0.08950    0.77000    0.83560    1.000
    C131     C        0.96040    0.71120    0.00680    1.000
    C132     C        0.42510    0.42300    0.72150    1.000
    C133     C        0.95380    0.99830    0.94630    1.000
    C134     C        0.94890    0.97700    0.82400    1.000
    C135     C        0.61640    0.22300    0.72570    1.000
    C136     C        0.53960    0.21120    0.50680    1.000
    C137     C        0.73270    0.92080    0.34930    1.000
    C138     C        0.09110    0.02200    0.23430    1.000
    C139     C        0.28290    0.21820    0.63570    1.000
    C140     C        0.85580    0.26600    0.82860    1.000
    C141     C        0.72910    0.53360    0.62970    1.000
    C142     C        0.29900    0.76950    0.10410    1.000
    C143     C        0.77790    0.56810    0.20630    1.000
    C144     C        0.50200    0.51100    0.38210    1.000
    N1       N        0.36040    0.92960    0.67470    1.000
    N2       N        0.67420    0.81730    0.64570    1.000
    N3       N        0.13960    0.42960    0.17470    1.000
    N4       N        0.86040    0.92960    0.82530    1.000
    N5       N        0.82580    0.31730    0.14570    1.000
    N6       N        0.17420    0.81730    0.85430    1.000
    N7       N        0.32580    0.31730    0.35430    1.000
    N8       N        0.63960    0.42960    0.32530    1.000
    O1       O        0.05420    0.17120    0.73060    1.000
    O2       O        0.70730    0.52870    0.17260    1.000
    O3       O        0.16910    0.02180    0.74960    1.000
    O4       O        0.13500    0.22000    0.26670    1.000
    O5       O        0.44580    0.67120    0.23060    1.000
    O6       O        0.83090    0.52180    0.25040    1.000
    O7       O        0.22940    0.72500    0.69850    1.000
    O8       O        0.66910    0.02180    0.75040    1.000
    O9       O        0.29270    0.02870    0.82740    1.000
    O10      O        0.94580    0.67120    0.26940    1.000
    O11      O        0.02340    0.06970    0.27540    1.000
    O12      O        0.63500    0.22000    0.23330    1.000
    O13      O        0.47660    0.56970    0.77540    1.000
    O14      O        0.33090    0.52180    0.24960    1.000
    O15      O        0.77060    0.22500    0.30150    1.000
    O16      O        0.55420    0.17120    0.76940    1.000
    O17      O        0.86500    0.72000    0.73330    1.000
    O18      O        0.20730    0.52870    0.32740    1.000
    O19      O        0.36500    0.72000    0.76670    1.000
    O20      O        0.52340    0.06970    0.22460    1.000
    O21      O        0.97660    0.56970    0.72460    1.000
    O22      O        0.72940    0.72500    0.80150    1.000
    O23      O        0.79270    0.02870    0.67260    1.000
    O24      O        0.27060    0.22500    0.19850    1.000
