# CIF file generated by openbabel 3.1.0, see https://openbabel.org
data_I
_chemical_name_common 'image0'
_cell_length_a 18.49
_cell_length_b 27.509
_cell_length_c 22.86
_cell_angle_alpha 90
_cell_angle_beta 123.23
_cell_angle_gamma 90
_space_group_name_H-M_alt 'P 1'
_space_group_name_Hall 'P 1'
loop_
    _symmetry_equiv_pos_as_xyz
    x,y,z
loop_
    _atom_site_label
    _atom_site_type_symbol
    _atom_site_fract_x
    _atom_site_fract_y
    _atom_site_fract_z
    _atom_site_occupancy
    O1       O        0.34230    0.21030    0.55100    1.000
    O2       O        0.27370    0.22020    0.43540    1.000
    C1       C        0.29680    0.23380    0.49590    1.000
    O3       O        0.53650    0.63820    0.19780    1.000
    O4       O        0.54350    0.57780    0.13910    1.000
    C2       C        0.50800    0.59890    0.16680    1.000
    C3       C        0.43210    0.57550    0.16180    1.000
    C4       C        0.38590    0.59940    0.18290    1.000
    H1       H        0.39980    0.63130    0.19840    1.000
    C5       C        0.31780    0.57640    0.18150    1.000
    H2       H        0.28710    0.59300    0.19660    1.000
    C6       C        0.29560    0.52910    0.15790    1.000
    C7       C        0.22390    0.50320    0.15650    1.000
    C8       C        0.14660    0.52570    0.13240    1.000
    H3       H        0.13870    0.55800    0.11790    1.000
    C9       C        0.07780    0.49950    0.12960    1.000
    C10      C        0.99200    0.52400    0.09700    1.000
    C11      C        0.95750    0.54980    0.03450    1.000
    H4       H        0.98760    0.55080    0.01260    1.000
    C12      C        0.88050    0.57370    0.00510    1.000
    H5       H        0.85850    0.59030    0.96330    1.000
    C13      C        0.83400    0.57340    0.03710    1.000
    O5       O        0.50910    0.64430    0.84120    1.000
    O6       O        0.52500    0.57790    0.89870    1.000
    C14      C        0.48710    0.60070    0.84200    1.000
    C15      C        0.41650    0.57700    0.77680    1.000
    C16      C        0.37680    0.60170    0.71480    1.000
    H6       H        0.39090    0.63410    0.71410    1.000
    C17      C        0.31340    0.57790    0.65080    1.000
    H7       H        0.28740    0.59430    0.60830    1.000
    C18      C        0.29190    0.53110    0.65320    1.000
    C19      C        0.23380    0.50360    0.58630    1.000
    C20      C        0.15880    0.52550    0.53050    1.000
    H8       H        0.14380    0.55680    0.53540    1.000
    C21      C        0.10720    0.50070    0.46830    1.000
    C22      C        0.02680    0.52400    0.41170    1.000
    C23      C        0.97100    0.54810    0.42330    1.000
    H9       H        0.98540    0.54990    0.46910    1.000
    C24      C        0.89540    0.56990    0.37240    1.000
    H10      H        0.85920    0.58540    0.38290    1.000
    C25      C        0.87540    0.56780    0.30390    1.000
    C26      C        0.25050    0.45610    0.57830    1.000
    H11      H        0.29880    0.44090    0.61560    1.000
    C27      C        0.79420    0.59250    0.24710    1.000
    O7       O        0.73800    0.60610    0.25900    1.000
    C28      C        0.25290    0.22870    0.27010    1.000
    C29      C        0.15070    0.35390    0.22950    1.000
    H12      H        0.11480    0.37150    0.23840    1.000
    C30      C        0.16980    0.30590    0.25070    1.000
    H13      H        0.14470    0.29130    0.27220    1.000
    C31      C        0.22480    0.27970    0.24070    1.000
    C32      C        0.25670    0.30080    0.20420    1.000
    H14      H        0.29200    0.28300    0.19490    1.000
    C33      C        0.23600    0.34830    0.18180    1.000
    H15      H        0.25740    0.36200    0.15710    1.000
    C34      C        0.40680    0.52730    0.13480    1.000
    H16      H        0.43530    0.51110    0.11730    1.000
    C35      C        0.34070    0.50510    0.13480    1.000
    H17      H        0.32590    0.47320    0.11890    1.000
    C36      C        0.23480    0.45510    0.17650    1.000
    H18      H        0.28710    0.44000    0.19120    1.000
    C37      C        0.16960    0.42810    0.17550    1.000
    C38      C        0.09060    0.45190    0.15130    1.000
    H19      H        0.04610    0.43510    0.15000    1.000
    C39      C        0.86720    0.54820    0.09790    1.000
    H20      H        0.83750    0.54820    0.12000    1.000
    C40      C        0.94350    0.52280    0.12740    1.000
    H21      H        0.96310    0.50460    0.16770    1.000
    O8       O        0.21640    0.20760    0.29480    1.000
    O9       O        0.31780    0.21160    0.26980    1.000
    C41      C        0.18430    0.37590    0.19520    1.000
    Co1      Co       0.63885    0.64638    0.19276    1.000
    Co2      Co       0.60981    0.64471    0.94525    1.000
    Co3      Co       0.75401    0.65964    0.12383    1.000
    O10      O        0.71150    0.60980    0.93950    1.000
    O11      O        0.71920    0.61260    0.03810    1.000
    O12      O        0.78940    0.60050    0.18950    1.000
    O13      O        0.62490    0.65290    0.09480    1.000
    O14      O        0.53510    0.66110    0.98270    1.000
    C42      C        0.75060    0.60030    0.00320    1.000
    C43      C        0.92820    0.54270    0.28830    1.000
    H22      H        0.91350    0.54010    0.24250    1.000
    C44      C        0.00310    0.52170    0.34280    1.000
    H23      H        0.03910    0.50540    0.33280    1.000
    C45      C        0.12860    0.45330    0.46270    1.000
    H24      H        0.09440    0.43680    0.42050    1.000
    C46      C        0.19890    0.43010    0.51760    1.000
    C47      C        0.33070    0.50680    0.71840    1.000
    H25      H        0.31430    0.47520    0.72060    1.000
    C48      C        0.39180    0.53000    0.77760    1.000
    H26      H        0.41780    0.51360    0.82010    1.000
    C49      C        0.22270    0.37980    0.51140    1.000
    C50      C        0.26340    0.34780    0.57080    1.000
    H27      H        0.27490    0.35880    0.61350    1.000
    C51      C        0.28520    0.30190    0.56540    1.000
    H28      H        0.31190    0.28170    0.60440    1.000
    C52      C        0.26760    0.28460    0.50090    1.000
    C53      C        0.22920    0.31450    0.44440    1.000
    H29      H        0.21870    0.30320    0.40210    1.000
    C54      C        0.20560    0.36130    0.44860    1.000
    H30      H        0.17770    0.38070    0.40880    1.000
    C55      C        0.55270    0.66130    0.04340    1.000
    H31      H        0.50860    0.66820    0.05030    1.000
    O15      O        0.65770    0.71030    0.94900    1.000
    O16      O        0.72630    0.72020    0.06460    1.000
    C56      C        0.70320    0.73380    0.00410    1.000
    O17      O        0.46350    0.13820    0.30220    1.000
    O18      O        0.45650    0.07780    0.36090    1.000
    C57      C        0.49200    0.09890    0.33320    1.000
    C58      C        0.56790    0.07550    0.33820    1.000
    C59      C        0.61410    0.09940    0.31710    1.000
    H32      H        0.60020    0.13130    0.30160    1.000
    C60      C        0.68220    0.07640    0.31850    1.000
    H33      H        0.71290    0.09300    0.30340    1.000
    C61      C        0.70440    0.02910    0.34210    1.000
    C62      C        0.77610    0.00320    0.34350    1.000
    C63      C        0.85340    0.02570    0.36760    1.000
    H34      H        0.86130    0.05800    0.38210    1.000
    C64      C        0.92220    0.99950    0.37040    1.000
    C65      C        0.00800    0.02400    0.40300    1.000
    C66      C        0.04250    0.04980    0.46550    1.000
    H35      H        0.01240    0.05080    0.48740    1.000
    C67      C        0.11950    0.07370    0.49490    1.000
    H36      H        0.14150    0.09030    0.53670    1.000
    C68      C        0.16600    0.07340    0.46290    1.000
    O19      O        0.49090    0.14430    0.65880    1.000
    O20      O        0.47500    0.07790    0.60130    1.000
    C69      C        0.51290    0.10070    0.65800    1.000
    C70      C        0.58350    0.07700    0.72320    1.000
    C71      C        0.62320    0.10170    0.78520    1.000
    H37      H        0.60910    0.13410    0.78590    1.000
    C72      C        0.68660    0.07790    0.84920    1.000
    H38      H        0.71260    0.09430    0.89170    1.000
    C73      C        0.70810    0.03110    0.84680    1.000
    C74      C        0.76620    0.00360    0.91370    1.000
    C75      C        0.84120    0.02550    0.96950    1.000
    H39      H        0.85620    0.05680    0.96460    1.000
    C76      C        0.89280    0.00070    0.03170    1.000
    C77      C        0.97320    0.02400    0.08830    1.000
    C78      C        0.02900    0.04810    0.07670    1.000
    H40      H        0.01460    0.04990    0.03090    1.000
    C79      C        0.10460    0.06990    0.12760    1.000
    H41      H        0.14080    0.08540    0.11710    1.000
    C80      C        0.12460    0.06780    0.19610    1.000
    C81      C        0.74950    0.95610    0.92170    1.000
    H42      H        0.70120    0.94090    0.88440    1.000
    C82      C        0.20580    0.09250    0.25290    1.000
    O21      O        0.26200    0.10610    0.24100    1.000
    C83      C        0.74710    0.72870    0.22990    1.000
    C84      C        0.84930    0.85390    0.27050    1.000
    H43      H        0.88520    0.87150    0.26160    1.000
    C85      C        0.83020    0.80590    0.24930    1.000
    H44      H        0.85530    0.79130    0.22780    1.000
    C86      C        0.77520    0.77970    0.25930    1.000
    C87      C        0.74330    0.80080    0.29580    1.000
    H45      H        0.70800    0.78300    0.30510    1.000
    C88      C        0.76400    0.84830    0.31820    1.000
    H46      H        0.74260    0.86200    0.34290    1.000
    C89      C        0.59320    0.02730    0.36520    1.000
    H47      H        0.56470    0.01110    0.38270    1.000
    C90      C        0.65930    0.00510    0.36520    1.000
    H48      H        0.67410    0.97320    0.38110    1.000
    C91      C        0.76520    0.95510    0.32350    1.000
    H49      H        0.71290    0.94000    0.30880    1.000
    C92      C        0.83040    0.92810    0.32450    1.000
    C93      C        0.90940    0.95190    0.34870    1.000
    H50      H        0.95390    0.93510    0.35000    1.000
    C94      C        0.13280    0.04820    0.40210    1.000
    H51      H        0.16250    0.04820    0.38000    1.000
    C95      C        0.05650    0.02280    0.37260    1.000
    H52      H        0.03690    0.00460    0.33230    1.000
    O22      O        0.78360    0.70760    0.20520    1.000
    O23      O        0.68220    0.71160    0.23020    1.000
    C96      C        0.81570    0.87590    0.30480    1.000
    Co4      Co       0.36115    0.14638    0.30724    1.000
    Co5      Co       0.39019    0.14471    0.55475    1.000
    Co6      Co       0.24599    0.15964    0.37617    1.000
    O24      O        0.28850    0.10980    0.56050    1.000
    O25      O        0.28080    0.11260    0.46190    1.000
    O26      O        0.21060    0.10050    0.31050    1.000
    O27      O        0.37510    0.15290    0.40520    1.000
    O28      O        0.46490    0.16110    0.51730    1.000
    C97      C        0.24940    0.10030    0.49680    1.000
    C98      C        0.07180    0.04270    0.21170    1.000
    H53      H        0.08650    0.04010    0.25750    1.000
    C99      C        0.99690    0.02170    0.15720    1.000
    H54      H        0.96090    0.00540    0.16720    1.000
    C100     C        0.87140    0.95330    0.03730    1.000
    H55      H        0.90560    0.93680    0.07950    1.000
    C101     C        0.80110    0.93010    0.98240    1.000
    C102     C        0.66930    0.00680    0.78160    1.000
    H56      H        0.68570    0.97520    0.77940    1.000
    C103     C        0.60820    0.03000    0.72240    1.000
    H57      H        0.58220    0.01360    0.67990    1.000
    C104     C        0.77730    0.87980    0.98860    1.000
    C105     C        0.73660    0.84780    0.92920    1.000
    H58      H        0.72510    0.85880    0.88650    1.000
    C106     C        0.71480    0.80190    0.93460    1.000
    H59      H        0.68810    0.78170    0.89560    1.000
    C107     C        0.73240    0.78460    0.99910    1.000
    C108     C        0.77080    0.81450    0.05560    1.000
    H60      H        0.78130    0.80320    0.09790    1.000
    C109     C        0.79440    0.86130    0.05140    1.000
    H61      H        0.82230    0.88070    0.09120    1.000
    C110     C        0.44730    0.16130    0.45660    1.000
    H62      H        0.49140    0.16820    0.44970    1.000
    O29      O        0.65770    0.78970    0.44900    1.000
    O30      O        0.72630    0.77980    0.56460    1.000
    C111     C        0.70320    0.76620    0.50410    1.000
    O31      O        0.46350    0.36180    0.80220    1.000
    O32      O        0.45650    0.42220    0.86090    1.000
    C112     C        0.49200    0.40110    0.83320    1.000
    C113     C        0.56790    0.42450    0.83820    1.000
    C114     C        0.61410    0.40060    0.81710    1.000
    H63      H        0.60020    0.36870    0.80160    1.000
    C115     C        0.68220    0.42360    0.81850    1.000
    H64      H        0.71290    0.40700    0.80340    1.000
    C116     C        0.70440    0.47090    0.84210    1.000
    C117     C        0.77610    0.49680    0.84350    1.000
    C118     C        0.85340    0.47430    0.86760    1.000
    H65      H        0.86130    0.44200    0.88210    1.000
    C119     C        0.92220    0.50050    0.87040    1.000
    C120     C        0.00800    0.47600    0.90300    1.000
    C121     C        0.04250    0.45020    0.96550    1.000
    H66      H        0.01240    0.44920    0.98740    1.000
    C122     C        0.11950    0.42630    0.99490    1.000
    H67      H        0.14150    0.40970    0.03670    1.000
    C123     C        0.16600    0.42660    0.96290    1.000
    O33      O        0.49090    0.35570    0.15880    1.000
    O34      O        0.47500    0.42210    0.10130    1.000
    C124     C        0.51290    0.39930    0.15800    1.000
    C125     C        0.58350    0.42300    0.22320    1.000
    C126     C        0.62320    0.39830    0.28520    1.000
    H68      H        0.60910    0.36590    0.28590    1.000
    C127     C        0.68660    0.42210    0.34920    1.000
    H69      H        0.71260    0.40570    0.39170    1.000
    C128     C        0.70810    0.46890    0.34680    1.000
    C129     C        0.76620    0.49640    0.41370    1.000
    C130     C        0.84120    0.47450    0.46950    1.000
    H70      H        0.85620    0.44320    0.46460    1.000
    C131     C        0.89280    0.49930    0.53170    1.000
    C132     C        0.97320    0.47600    0.58830    1.000
    C133     C        0.02900    0.45190    0.57670    1.000
    H71      H        0.01460    0.45010    0.53090    1.000
    C134     C        0.10460    0.43010    0.62760    1.000
    H72      H        0.14080    0.41460    0.61710    1.000
    C135     C        0.12460    0.43220    0.69610    1.000
    C136     C        0.74950    0.54390    0.42170    1.000
    H73      H        0.70120    0.55910    0.38440    1.000
    C137     C        0.20580    0.40750    0.75290    1.000
    O35      O        0.26200    0.39390    0.74100    1.000
    C138     C        0.74710    0.77130    0.72990    1.000
    C139     C        0.84930    0.64610    0.77050    1.000
    H74      H        0.88520    0.62850    0.76160    1.000
    C140     C        0.83020    0.69410    0.74930    1.000
    H75      H        0.85530    0.70870    0.72780    1.000
    C141     C        0.77520    0.72030    0.75930    1.000
    C142     C        0.74330    0.69920    0.79580    1.000
    H76      H        0.70800    0.71700    0.80510    1.000
    C143     C        0.76400    0.65170    0.81820    1.000
    H77      H        0.74260    0.63800    0.84290    1.000
    C144     C        0.59320    0.47270    0.86520    1.000
    H78      H        0.56470    0.48890    0.88270    1.000
    C145     C        0.65930    0.49490    0.86520    1.000
    H79      H        0.67410    0.52680    0.88110    1.000
    C146     C        0.76520    0.54490    0.82350    1.000
    H80      H        0.71290    0.56000    0.80880    1.000
    C147     C        0.83040    0.57190    0.82450    1.000
    C148     C        0.90940    0.54810    0.84870    1.000
    H81      H        0.95390    0.56490    0.85000    1.000
    C149     C        0.13280    0.45180    0.90210    1.000
    H82      H        0.16250    0.45180    0.88000    1.000
    C150     C        0.05650    0.47720    0.87260    1.000
    H83      H        0.03690    0.49540    0.83230    1.000
    O36      O        0.78360    0.79240    0.70520    1.000
    O37      O        0.68220    0.78840    0.73020    1.000
    C151     C        0.81570    0.62410    0.80480    1.000
    Co7      Co       0.36115    0.35362    0.80724    1.000
    Co8      Co       0.39019    0.35529    0.05475    1.000
    Co9      Co       0.24599    0.34036    0.87617    1.000
    O38      O        0.28850    0.39020    0.06050    1.000
    O39      O        0.28080    0.38740    0.96190    1.000
    O40      O        0.21060    0.39950    0.81050    1.000
    O41      O        0.37510    0.34710    0.90520    1.000
    O42      O        0.46490    0.33890    0.01730    1.000
    C152     C        0.24940    0.39970    0.99680    1.000
    C153     C        0.07180    0.45730    0.71170    1.000
    H84      H        0.08650    0.45990    0.75750    1.000
    C154     C        0.99690    0.47830    0.65720    1.000
    H85      H        0.96090    0.49460    0.66720    1.000
    C155     C        0.87140    0.54670    0.53730    1.000
    H86      H        0.90560    0.56320    0.57950    1.000
    C156     C        0.80110    0.56990    0.48240    1.000
    C157     C        0.66930    0.49320    0.28160    1.000
    H87      H        0.68570    0.52480    0.27940    1.000
    C158     C        0.60820    0.47000    0.22240    1.000
    H88      H        0.58220    0.48640    0.17990    1.000
    C159     C        0.77730    0.62020    0.48860    1.000
    C160     C        0.73660    0.65220    0.42920    1.000
    H89      H        0.72510    0.64120    0.38650    1.000
    C161     C        0.71480    0.69810    0.43460    1.000
    H90      H        0.68810    0.71830    0.39560    1.000
    C162     C        0.73240    0.71540    0.49910    1.000
    C163     C        0.77080    0.68550    0.55560    1.000
    H91      H        0.78130    0.69680    0.59790    1.000
    C164     C        0.79440    0.63870    0.55140    1.000
    H92      H        0.82230    0.61930    0.59120    1.000
    C165     C        0.44730    0.33870    0.95660    1.000
    H93      H        0.49140    0.33180    0.94970    1.000
    O43      O        0.34230    0.28970    0.05100    1.000
    O44      O        0.27370    0.27980    0.93540    1.000
    C166     C        0.29680    0.26620    0.99590    1.000
    O45      O        0.53650    0.86180    0.69780    1.000
    O46      O        0.54350    0.92220    0.63910    1.000
    C167     C        0.50800    0.90110    0.66680    1.000
    C168     C        0.43210    0.92450    0.66180    1.000
    C169     C        0.38590    0.90060    0.68290    1.000
    H94      H        0.39980    0.86870    0.69840    1.000
    C170     C        0.31780    0.92360    0.68150    1.000
    H95      H        0.28710    0.90700    0.69660    1.000
    C171     C        0.29560    0.97090    0.65790    1.000
    C172     C        0.22390    0.99680    0.65650    1.000
    C173     C        0.14660    0.97430    0.63240    1.000
    H96      H        0.13870    0.94200    0.61790    1.000
    C174     C        0.07780    0.00050    0.62960    1.000
    C175     C        0.99200    0.97600    0.59700    1.000
    C176     C        0.95750    0.95020    0.53450    1.000
    H97      H        0.98760    0.94920    0.51260    1.000
    C177     C        0.88050    0.92630    0.50510    1.000
    H98      H        0.85850    0.90970    0.46330    1.000
    C178     C        0.83400    0.92660    0.53710    1.000
    O47      O        0.50910    0.85570    0.34120    1.000
    O48      O        0.52500    0.92210    0.39870    1.000
    C179     C        0.48710    0.89930    0.34200    1.000
    C180     C        0.41650    0.92300    0.27680    1.000
    C181     C        0.37680    0.89830    0.21480    1.000
    H99      H        0.39090    0.86590    0.21410    1.000
    C182     C        0.31340    0.92210    0.15080    1.000
    H100     H        0.28740    0.90570    0.10830    1.000
    C183     C        0.29190    0.96890    0.15320    1.000
    C184     C        0.23380    0.99640    0.08630    1.000
    C185     C        0.15880    0.97450    0.03050    1.000
    H101     H        0.14380    0.94320    0.03540    1.000
    C186     C        0.10720    0.99930    0.96830    1.000
    C187     C        0.02680    0.97600    0.91170    1.000
    C188     C        0.97100    0.95190    0.92330    1.000
    H102     H        0.98540    0.95010    0.96910    1.000
    C189     C        0.89540    0.93010    0.87240    1.000
    H103     H        0.85920    0.91460    0.88290    1.000
    C190     C        0.87540    0.93220    0.80390    1.000
    C191     C        0.25050    0.04390    0.07830    1.000
    H104     H        0.29880    0.05910    0.11560    1.000
    C192     C        0.79420    0.90750    0.74710    1.000
    O49      O        0.73800    0.89390    0.75900    1.000
    C193     C        0.25290    0.27130    0.77010    1.000
    C194     C        0.15070    0.14610    0.72950    1.000
    H105     H        0.11480    0.12850    0.73840    1.000
    C195     C        0.16980    0.19410    0.75070    1.000
    H106     H        0.14470    0.20870    0.77220    1.000
    C196     C        0.22480    0.22030    0.74070    1.000
    C197     C        0.25670    0.19920    0.70420    1.000
    H107     H        0.29200    0.21700    0.69490    1.000
    C198     C        0.23600    0.15170    0.68180    1.000
    H108     H        0.25740    0.13800    0.65710    1.000
    C199     C        0.40680    0.97270    0.63480    1.000
    H109     H        0.43530    0.98890    0.61730    1.000
    C200     C        0.34070    0.99490    0.63480    1.000
    H110     H        0.32590    0.02680    0.61890    1.000
    C201     C        0.23480    0.04490    0.67650    1.000
    H111     H        0.28710    0.06000    0.69120    1.000
    C202     C        0.16960    0.07190    0.67550    1.000
    C203     C        0.09060    0.04810    0.65130    1.000
    H112     H        0.04610    0.06490    0.65000    1.000
    C204     C        0.86720    0.95180    0.59790    1.000
    H113     H        0.83750    0.95180    0.62000    1.000
    C205     C        0.94350    0.97720    0.62740    1.000
    H114     H        0.96310    0.99540    0.66770    1.000
    O50      O        0.21640    0.29240    0.79480    1.000
    O51      O        0.31780    0.28840    0.76980    1.000
    C206     C        0.18430    0.12410    0.69520    1.000
    Co10     Co       0.63885    0.85362    0.69276    1.000
    Co11     Co       0.60981    0.85529    0.44525    1.000
    Co12     Co       0.75401    0.84036    0.62383    1.000
    O52      O        0.71150    0.89020    0.43950    1.000
    O53      O        0.71920    0.88740    0.53810    1.000
    O54      O        0.78940    0.89950    0.68950    1.000
    O55      O        0.62490    0.84710    0.59480    1.000
    O56      O        0.53510    0.83890    0.48270    1.000
    C207     C        0.75060    0.89970    0.50320    1.000
    C208     C        0.92820    0.95730    0.78830    1.000
    H115     H        0.91350    0.95990    0.74250    1.000
    C209     C        0.00310    0.97830    0.84280    1.000
    H116     H        0.03910    0.99460    0.83280    1.000
    C210     C        0.12860    0.04670    0.96270    1.000
    H117     H        0.09440    0.06320    0.92050    1.000
    C211     C        0.19890    0.06990    0.01760    1.000
    C212     C        0.33070    0.99320    0.21840    1.000
    H118     H        0.31430    0.02480    0.22060    1.000
    C213     C        0.39180    0.97000    0.27760    1.000
    H119     H        0.41780    0.98640    0.32010    1.000
    C214     C        0.22270    0.12020    0.01140    1.000
    C215     C        0.26340    0.15220    0.07080    1.000
    H120     H        0.27490    0.14120    0.11350    1.000
    C216     C        0.28520    0.19810    0.06540    1.000
    H121     H        0.31190    0.21830    0.10440    1.000
    C217     C        0.26760    0.21540    0.00090    1.000
    C218     C        0.22920    0.18550    0.94440    1.000
    H122     H        0.21870    0.19680    0.90210    1.000
    C219     C        0.20560    0.13870    0.94860    1.000
    H123     H        0.17770    0.11930    0.90880    1.000
    C220     C        0.55270    0.83870    0.54340    1.000
    H124     H        0.50860    0.83180    0.55030    1.000
