# CIF file generated by openbabel 3.1.0, see https://openbabel.org
data_I
_chemical_name_common 'image0'
_cell_length_a 9.153
_cell_length_b 9.4866
_cell_length_c 11.1531
_cell_angle_alpha 90.929
_cell_angle_beta 99.746
_cell_angle_gamma 105.174
_space_group_name_H-M_alt 'P 1'
_space_group_name_Hall 'P 1'
loop_
    _symmetry_equiv_pos_as_xyz
    x,y,z
loop_
    _atom_site_label
    _atom_site_type_symbol
    _atom_site_fract_x
    _atom_site_fract_y
    _atom_site_fract_z
    _atom_site_occupancy
    Cd1      Cd       0.33839    0.13384    0.46713    1.000
    Cd2      Cd       0.49582    0.47679    0.64997    1.000
    C1       C        0.57550    0.76450    0.80330    1.000
    C2       C        0.63400    0.86250    0.91800    1.000
    C3       C        0.64810    0.80380    0.03130    1.000
    H1       H        0.62550    0.70280    0.03630    1.000
    C4       C        0.69570    0.89490    0.13720    1.000
    C5       C        0.70110    0.82950    0.25950    1.000
    C6       C        0.66820    0.01410    0.91070    1.000
    H2       H        0.65830    0.05430    0.83520    1.000
    C7       C        0.73010    0.04630    0.13010    1.000
    H3       H        0.76140    0.10790    0.20070    1.000
    C8       C        0.71700    0.10380    0.01650    1.000
    C9       C        0.85520    0.35260    0.07950    1.000
    C10      C        0.99180    0.32520    0.13020    1.000
    H4       H        0.00900    0.23460    0.11570    1.000
    C11      C        0.10430    0.43490    0.20350    1.000
    H5       H        0.19670    0.41670    0.23870    1.000
    C12      C        0.08070    0.57110    0.22480    1.000
    C13      C        0.94300    0.59640    0.17080    1.000
    H6       H        0.92630    0.68780    0.18290    1.000
    C14      C        0.82930    0.48690    0.09870    1.000
    H7       H        0.73650    0.50430    0.06360    1.000
    C15      C        0.19800    0.68740    0.30330    1.000
    H8       H        0.28100    0.38300    0.46700    1.000
    N1       N        0.34260    0.68420    0.34746    1.000
    N2       N        0.40710    0.81150    0.41474    1.000
    N3       N        0.30560    0.88660    0.41030    1.000
    N4       N        0.17160    0.81160    0.34070    1.000
    O1       O        0.53850    0.82070    0.70492    1.000
    O2       O        0.56170    0.62949    0.81386    1.000
    O3       O        0.65880    0.69300    0.25850    1.000
    O4       O        0.74800    0.91610    0.35397    1.000
    O5       O        0.73930    0.25259    0.00175    1.000
    O6       O        0.36010    0.37373    0.46863    1.000
    Cd3      Cd       0.66161    0.86616    0.53287    1.000
    Cd4      Cd       0.50418    0.52321    0.35003    1.000
    C16      C        0.42450    0.23550    0.19670    1.000
    C17      C        0.36600    0.13750    0.08200    1.000
    C18      C        0.35190    0.19620    0.96870    1.000
    H9       H        0.37450    0.29720    0.96370    1.000
    C19      C        0.30430    0.10510    0.86280    1.000
    C20      C        0.29890    0.17050    0.74050    1.000
    C21      C        0.33180    0.98590    0.08930    1.000
    H10      H        0.34170    0.94570    0.16480    1.000
    C22      C        0.26990    0.95370    0.86990    1.000
    H11      H        0.23860    0.89210    0.79930    1.000
    C23      C        0.28300    0.89620    0.98350    1.000
    C24      C        0.14480    0.64740    0.92050    1.000
    C25      C        0.00820    0.67480    0.86980    1.000
    H12      H        0.99100    0.76540    0.88430    1.000
    C26      C        0.89570    0.56510    0.79650    1.000
    H13      H        0.80330    0.58330    0.76130    1.000
    C27      C        0.91930    0.42890    0.77520    1.000
    C28      C        0.05700    0.40360    0.82920    1.000
    H14      H        0.07370    0.31220    0.81710    1.000
    C29      C        0.17070    0.51310    0.90130    1.000
    H15      H        0.26350    0.49570    0.93640    1.000
    C30      C        0.80200    0.31260    0.69670    1.000
    H16      H        0.71900    0.61700    0.53300    1.000
    N5       N        0.65740    0.31580    0.65254    1.000
    N6       N        0.59290    0.18850    0.58526    1.000
    N7       N        0.69440    0.11340    0.58970    1.000
    N8       N        0.82840    0.18840    0.65930    1.000
    O7       O        0.46150    0.17930    0.29508    1.000
    O8       O        0.43830    0.37051    0.18614    1.000
    O9       O        0.34120    0.30700    0.74150    1.000
    O10      O        0.25200    0.08390    0.64603    1.000
    O11      O        0.26070    0.74741    0.99825    1.000
    O12      O        0.63990    0.62627    0.53137    1.000
