# CIF file generated by openbabel 3.1.0, see https://openbabel.org
data_I
_chemical_name_common 'ja907023c_si_003_clean'
_cell_length_a 20.0483
_cell_length_b 20.0481
_cell_length_c 20.0481
_cell_angle_alpha 109.471
_cell_angle_beta 109.471
_cell_angle_gamma 109.471
_space_group_name_H-M_alt 'P 1'
_space_group_name_Hall 'P 1'
loop_
    _symmetry_equiv_pos_as_xyz
    x,y,z
loop_
    _atom_site_label
    _atom_site_type_symbol
    _atom_site_fract_x
    _atom_site_fract_y
    _atom_site_fract_z
    _atom_site_occupancy
    Co1      Co       0.50000    0.00000    0.00000    1.000
    Co2      Co       0.00000    0.00000    0.50000    1.000
    Co3      Co       0.00000    0.50000    0.00000    1.000
    Co4      Co       0.50000    0.50000    0.50000    1.000
    H1       H        0.57460    0.09320    0.19340    1.000
    H2       H        0.84980    0.72600    0.66420    1.000
    H3       H        0.18560    0.33580    0.06180    1.000
    H4       H        0.66420    0.93820    0.81440    1.000
    H5       H        0.63720    0.66630    0.74590    1.000
    H6       H        0.09320    0.51860    0.89980    1.000
    H7       H        0.27400    0.12380    0.93820    1.000
    H8       H        0.38670    0.10910    0.81040    1.000
    H9       H        0.42370    0.72240    0.61330    1.000
    H10      H        0.61330    0.89090    0.18960    1.000
    H11      H        0.27400    0.33580    0.15020    1.000
    H12      H        0.10020    0.61880    0.19340    1.000
    H13      H        0.33580    0.15020    0.27400    1.000
    H14      H        0.81040    0.70130    0.42370    1.000
    H15      H        0.29870    0.10910    0.72240    1.000
    H16      H        0.33580    0.06180    0.18560    1.000
    H17      H        0.15020    0.81440    0.87620    1.000
    H18      H        0.90680    0.80660    0.42540    1.000
    H19      H        0.89130    0.97090    0.63720    1.000
    H20      H        0.38670    0.57630    0.27760    1.000
    H21      H        0.63720    0.89130    0.97090    1.000
    H22      H        0.36280    0.10870    0.02910    1.000
    H23      H        0.25410    0.36280    0.33370    1.000
    H24      H        0.80660    0.89980    0.38120    1.000
    H25      H        0.27760    0.70130    0.89090    1.000
    H26      H        0.70130    0.42370    0.81040    1.000
    H27      H        0.72600    0.87620    0.06180    1.000
    H28      H        0.81440    0.66420    0.93820    1.000
    H29      H        0.42540    0.61880    0.51860    1.000
    H30      H        0.10910    0.72240    0.29870    1.000
    H31      H        0.18960    0.29870    0.57630    1.000
    H32      H        0.61880    0.19340    0.10020    1.000
    H33      H        0.19340    0.10020    0.61880    1.000
    H34      H        0.66420    0.84980    0.72600    1.000
    H35      H        0.72240    0.61330    0.42370    1.000
    H36      H        0.61880    0.51860    0.42540    1.000
    H37      H        0.51860    0.89980    0.09320    1.000
    H38      H        0.57630    0.27760    0.38670    1.000
    H39      H        0.89980    0.09320    0.51860    1.000
    H40      H        0.25410    0.92040    0.89130    1.000
    H41      H        0.89980    0.38120    0.80660    1.000
    H42      H        0.90680    0.48140    0.10020    1.000
    H43      H        0.66630    0.02910    0.92040    1.000
    H44      H        0.97090    0.63720    0.89130    1.000
    H45      H        0.19340    0.57460    0.09320    1.000
    H46      H        0.57630    0.18960    0.29870    1.000
    H47      H        0.10870    0.02910    0.36280    1.000
    H48      H        0.93820    0.81440    0.66420    1.000
    H49      H        0.33370    0.97090    0.07960    1.000
    H50      H        0.81040    0.38670    0.10910    1.000
    H51      H        0.48140    0.10020    0.90680    1.000
    H52      H        0.57460    0.38120    0.48140    1.000
    H53      H        0.15020    0.27400    0.33580    1.000
    H54      H        0.18960    0.61330    0.89090    1.000
    H55      H        0.02910    0.36280    0.10870    1.000
    H56      H        0.38120    0.48140    0.57460    1.000
    H57      H        0.87620    0.15020    0.81440    1.000
    H58      H        0.72600    0.66420    0.84980    1.000
    H59      H        0.33370    0.25410    0.36280    1.000
    H60      H        0.87620    0.06180    0.72600    1.000
    H61      H        0.07960    0.33370    0.97090    1.000
    H62      H        0.84980    0.18560    0.12380    1.000
    H63      H        0.42540    0.90680    0.80660    1.000
    H64      H        0.70130    0.89090    0.27760    1.000
    H65      H        0.81440    0.87620    0.15020    1.000
    H66      H        0.09320    0.19340    0.57460    1.000
    H67      H        0.89090    0.18960    0.61330    1.000
    H68      H        0.80660    0.42540    0.90680    1.000
    H69      H        0.07960    0.10870    0.74590    1.000
    H70      H        0.92040    0.66630    0.02910    1.000
    H71      H        0.06180    0.18560    0.33580    1.000
    H72      H        0.72240    0.29870    0.10910    1.000
    H73      H        0.42370    0.81040    0.70130    1.000
    H74      H        0.74590    0.63720    0.66630    1.000
    H75      H        0.93820    0.27400    0.12380    1.000
    H76      H        0.12380    0.93820    0.27400    1.000
    H77      H        0.12380    0.84980    0.18560    1.000
    H78      H        0.27760    0.38670    0.57630    1.000
    H79      H        0.18560    0.12380    0.84980    1.000
    H80      H        0.29870    0.57630    0.18960    1.000
    H81      H        0.02910    0.92040    0.66630    1.000
    H82      H        0.61330    0.42370    0.72240    1.000
    H83      H        0.06180    0.72600    0.87620    1.000
    H84      H        0.51860    0.42540    0.61880    1.000
    H85      H        0.74590    0.07960    0.10870    1.000
    H86      H        0.48140    0.57460    0.38120    1.000
    H87      H        0.97090    0.07960    0.33370    1.000
    H88      H        0.92040    0.89130    0.25410    1.000
    H89      H        0.10020    0.90680    0.48140    1.000
    H90      H        0.89130    0.25410    0.92040    1.000
    H91      H        0.38120    0.80660    0.89980    1.000
    H92      H        0.10910    0.81040    0.38670    1.000
    H93      H        0.10870    0.74590    0.07960    1.000
    H94      H        0.89090    0.27760    0.70130    1.000
    H95      H        0.66630    0.74590    0.63720    1.000
    H96      H        0.36280    0.33370    0.25410    1.000
    C1       C        0.52573    0.08734    0.19107    1.000
    C2       C        0.25420    0.52660    0.14560    1.000
    C3       C        0.10373    0.66534    0.19107    1.000
    C4       C        0.88366    0.19806    0.81340    1.000
    C5       C        0.10860    0.85440    0.38100    1.000
    C6       C        0.63140    0.61670    0.74110    1.000
    C7       C        0.25172    0.11270    0.79522    1.000
    C8       C        0.88730    0.20478    0.74828    1.000
    C9       C        0.08734    0.56161    0.89627    1.000
    C10      C        0.61670    0.74110    0.63140    1.000
    C11      C        0.61670    0.98530    0.87560    1.000
    C12      C        0.43839    0.52573    0.33466    1.000
    C13      C        0.89140    0.27240    0.74580    1.000
    C14      C        0.13902    0.68252    0.88730    1.000
    C15      C        0.38100    0.52660    0.27240    1.000
    C16      C        0.87560    0.61670    0.98530    1.000
    C17      C        0.07026    0.68560    0.88366    1.000
    C18      C        0.38330    0.25890    0.36860    1.000
    C19      C        0.61534    0.80194    0.68560    1.000
    C20      C        0.66534    0.19107    0.10373    1.000
    C21      C        0.19107    0.52573    0.08734    1.000
    C22      C        0.61534    0.92974    0.81340    1.000
    C23      C        0.31440    0.38466    0.19806    1.000
    C24      C        0.74110    0.12440    0.10970    1.000
    C25      C        0.56161    0.89627    0.08734    1.000
    C26      C        0.47427    0.66534    0.56161    1.000
    C27      C        0.07026    0.18660    0.38466    1.000
    C28      C        0.27240    0.38100    0.52660    1.000
    C29      C        0.27240    0.74580    0.89140    1.000
    C30      C        0.11634    0.92974    0.31440    1.000
    C31      C        0.45650    0.20478    0.31748    1.000
    C32      C        0.38330    0.01470    0.12440    1.000
    C33      C        0.79522    0.68252    0.54350    1.000
    C34      C        0.61900    0.47340    0.72760    1.000
    C35      C        0.20478    0.31748    0.45650    1.000
    C36      C        0.18660    0.11634    0.80194    1.000
    C37      C        0.25420    0.10860    0.72760    1.000
    C38      C        0.31440    0.11634    0.92974    1.000
    C39      C        0.61900    0.89140    0.14560    1.000
    C40      C        0.25172    0.45650    0.13902    1.000
    C41      C        0.38100    0.10860    0.85440    1.000
    C42      C        0.33466    0.43839    0.52573    1.000
    C43      C        0.86098    0.74828    0.54350    1.000
    C44      C        0.52660    0.27240    0.38100    1.000
    C45      C        0.80194    0.18660    0.11634    1.000
    C46      C        0.08734    0.19107    0.52573    1.000
    C47      C        0.66534    0.56161    0.47427    1.000
    C48      C        0.68252    0.54350    0.79522    1.000
    C49      C        0.91266    0.80893    0.47427    1.000
    C50      C        0.25890    0.87560    0.89030    1.000
    C51      C        0.72760    0.25420    0.10860    1.000
    C52      C        0.79522    0.25172    0.11270    1.000
    C53      C        0.31748    0.45650    0.20478    1.000
    C54      C        0.63140    0.89030    0.01470    1.000
    C55      C        0.80893    0.89627    0.33466    1.000
    C56      C        0.18660    0.38466    0.07026    1.000
    C57      C        0.13902    0.25172    0.45650    1.000
    C58      C        0.38466    0.07026    0.18660    1.000
    C59      C        0.54350    0.86098    0.74828    1.000
    C60      C        0.47427    0.91266    0.80893    1.000
    C61      C        0.89030    0.01470    0.63140    1.000
    C62      C        0.88730    0.13902    0.68252    1.000
    C63      C        0.74580    0.47340    0.85440    1.000
    C64      C        0.68560    0.61534    0.80194    1.000
    C65      C        0.52660    0.14560    0.25420    1.000
    C66      C        0.98530    0.36860    0.10970    1.000
    C67      C        0.81340    0.61534    0.92974    1.000
    C68      C        0.11634    0.80194    0.18660    1.000
    C69      C        0.36860    0.38330    0.25890    1.000
    C70      C        0.86098    0.31748    0.11270    1.000
    C71      C        0.74828    0.88730    0.20478    1.000
    C72      C        0.19806    0.31440    0.38466    1.000
    C73      C        0.98530    0.87560    0.61670    1.000
    C74      C        0.10970    0.74110    0.12440    1.000
    C75      C        0.91266    0.43839    0.10373    1.000
    C76      C        0.72760    0.61900    0.47340    1.000
    C77      C        0.85440    0.74580    0.47340    1.000
    C78      C        0.12440    0.38330    0.01470    1.000
    C79      C        0.89030    0.25890    0.87560    1.000
    C80      C        0.38466    0.19806    0.31440    1.000
    C81      C        0.14560    0.25420    0.52660    1.000
    C82      C        0.88366    0.07026    0.68560    1.000
    C83      C        0.11270    0.86098    0.31748    1.000
    C84      C        0.11270    0.79522    0.25172    1.000
    C85      C        0.10970    0.98530    0.36860    1.000
    C86      C        0.92974    0.81340    0.61534    1.000
    C87      C        0.47340    0.85440    0.74580    1.000
    C88      C        0.52573    0.33466    0.43839    1.000
    C89      C        0.33466    0.80893    0.89627    1.000
    C90      C        0.14560    0.61900    0.89140    1.000
    C91      C        0.19107    0.10373    0.66534    1.000
    C92      C        0.01470    0.63140    0.89030    1.000
    C93      C        0.47340    0.72760    0.61900    1.000
    C94      C        0.20478    0.74828    0.88730    1.000
    C95      C        0.89627    0.08734    0.56161    1.000
    C96      C        0.45650    0.13902    0.25172    1.000
    C97      C        0.54350    0.79522    0.68252    1.000
    C98      C        0.87560    0.89030    0.25890    1.000
    C99      C        0.19806    0.81340    0.88366    1.000
    C100     C        0.80194    0.68560    0.61534    1.000
    C101     C        0.80893    0.47427    0.91266    1.000
    C102     C        0.74110    0.63140    0.61670    1.000
    C103     C        0.25890    0.36860    0.38330    1.000
    C104     C        0.31748    0.11270    0.86098    1.000
    C105     C        0.89627    0.33466    0.80893    1.000
    C106     C        0.36860    0.10970    0.98530    1.000
    C107     C        0.89140    0.14560    0.61900    1.000
    C108     C        0.74828    0.54350    0.86098    1.000
    C109     C        0.10373    0.91266    0.43839    1.000
    C110     C        0.85440    0.38100    0.10860    1.000
    C111     C        0.81340    0.88366    0.19806    1.000
    C112     C        0.01470    0.12440    0.38330    1.000
    C113     C        0.10860    0.72760    0.25420    1.000
    C114     C        0.74580    0.89140    0.27240    1.000
    C115     C        0.56161    0.47427    0.66534    1.000
    C116     C        0.68252    0.88730    0.13902    1.000
    C117     C        0.12440    0.10970    0.74110    1.000
    C118     C        0.68560    0.88366    0.07026    1.000
    C119     C        0.92974    0.31440    0.11634    1.000
    C120     C        0.43839    0.10373    0.91266    1.000
    N1       N        0.12767    0.10422    0.67261    1.000
    N2       N        0.87233    0.89578    0.32739    1.000
    N3       N        0.45506    0.32739    0.43161    1.000
    N4       N        0.67261    0.12767    0.10422    1.000
    N5       N        0.32739    0.87233    0.89578    1.000
    N6       N        0.10422    0.97655    0.43161    1.000
    N7       N        0.67261    0.56839    0.54494    1.000
    N8       N        0.97655    0.43161    0.10422    1.000
    N9       N        0.87233    0.54494    0.97655    1.000
    N10      N        0.54494    0.67261    0.56839    1.000
    N11      N        0.89578    0.32739    0.87233    1.000
    N12      N        0.56839    0.54494    0.67261    1.000
    N13      N        0.10422    0.67261    0.12767    1.000
    N14      N        0.02345    0.56839    0.89578    1.000
    N15      N        0.89578    0.02345    0.56839    1.000
    N16      N        0.32739    0.43161    0.45506    1.000
    N17      N        0.12767    0.45506    0.02345    1.000
    N18      N        0.56839    0.89578    0.02345    1.000
    N19      N        0.43161    0.45506    0.32739    1.000
    N20      N        0.43161    0.10422    0.97655    1.000
    N21      N        0.02345    0.12767    0.45506    1.000
    N22      N        0.45506    0.02345    0.12767    1.000
    N23      N        0.54494    0.97655    0.87233    1.000
    N24      N        0.97655    0.87233    0.54494    1.000
    O1       O        0.96547    0.51261    0.89848    1.000
    O2       O        0.48739    0.45286    0.38587    1.000
    O3       O        0.54714    0.61413    0.51261    1.000
    O4       O        0.89848    0.96547    0.51261    1.000
    O5       O        0.54714    0.03453    0.93301    1.000
    O6       O        0.93301    0.54714    0.03453    1.000
    O7       O        0.03453    0.93301    0.54714    1.000
    O8       O        0.48739    0.10152    0.03453    1.000
    O9       O        0.51261    0.54714    0.61413    1.000
    O10      O        0.51261    0.89848    0.96547    1.000
    O11      O        0.03453    0.48739    0.10152    1.000
    O12      O        0.10152    0.61413    0.06699    1.000
    O13      O        0.06699    0.10152    0.61413    1.000
    O14      O        0.89848    0.38587    0.93301    1.000
    O15      O        0.38587    0.93301    0.89848    1.000
    O16      O        0.06699    0.45286    0.96547    1.000
    O17      O        0.96547    0.06699    0.45286    1.000
    O18      O        0.61413    0.06699    0.10152    1.000
    O19      O        0.45286    0.38587    0.48739    1.000
    O20      O        0.93301    0.89848    0.38587    1.000
    O21      O        0.61413    0.51261    0.54714    1.000
    O22      O        0.10152    0.03453    0.48739    1.000
    O23      O        0.38587    0.48739    0.45286    1.000
    O24      O        0.45286    0.96547    0.06699    1.000
