# CIF file generated by openbabel 3.1.0, see https://openbabel.org
data_I
_chemical_name_common 'FURQOZ01_ion_b'
_cell_length_a 34.5383
_cell_length_b 34.5383
_cell_length_c 8.5169
_cell_angle_alpha 90
_cell_angle_beta 90
_cell_angle_gamma 120
_space_group_name_H-M_alt 'P 1'
_space_group_name_Hall 'P 1'
loop_
    _symmetry_equiv_pos_as_xyz
    x,y,z
loop_
    _atom_site_label
    _atom_site_type_symbol
    _atom_site_fract_x
    _atom_site_fract_y
    _atom_site_fract_z
    _atom_site_occupancy
    Ag1      Ag       0.31747    0.14605    0.49392    1.000
    O2       O        0.99413    0.66687    0.57603    1.000
    N3       N        0.33689    0.20506    0.34390    1.000
    N4       N        0.19644    0.27611    0.39630    1.000
    C5       C        0.37203    0.21878    0.24920    1.000
    H6       H        0.38690    0.20250    0.24700    1.000
    C7       C        0.05401    0.58906    0.48813    1.000
    H8       H        0.74533    0.93087    0.75667    1.000
    C9       C        0.03258    0.61346    0.49053    1.000
    H10      H        0.04267    0.63893    0.42863    1.000
    C11      C        0.99559    0.59959    0.58663    1.000
    C12      C        0.31562    0.22850    0.34500    1.000
    H13      H        0.29090    0.21910    0.41000    1.000
    C14      C        0.97279    0.62667    0.59493    1.000
    C15      C        0.25721    0.27044    0.28880    1.000
    C16      C        0.89466    0.56254    0.55983    1.000
    H17      H        0.90517    0.54663    0.50303    1.000
    C18      C        0.18291    0.21206    0.25000    1.000
    H19      H        0.16240    0.18440    0.20800    1.000
    C20      C        0.16854    0.23595    0.33580    1.000
    H21      H        0.13800    0.22370    0.35280    1.000
    C22      C        0.23995    0.29275    0.37200    1.000
    H23      H        0.25980    0.32080    0.41300    1.000
    C24      C        0.40761    0.15207    0.53190    1.000
    O25      O        0.72128    0.82131    0.31297    1.000
    O26      O        0.39493    0.14393    0.39620    1.000
    C27      C        0.78817    0.82787    0.23197    1.000
    F28      F        0.47290    0.15048    0.45050    1.000
    F29      F        0.81516    0.86997    0.26397    1.000
    F30      F        0.78777    0.80225    0.35337    1.000
    Ag31     Ag       0.98414    0.47938    0.82725    1.000
    O32      O        0.66079    0.00021    0.90937    1.000
    N33      N        0.00356    0.53839    0.67723    1.000
    N34      N        0.86311    0.60944    0.72963    1.000
    C35      C        0.03870    0.55211    0.58253    1.000
    H36      H        0.05357    0.53583    0.58033    1.000
    C37      C        0.72067    0.92240    0.82147    1.000
    H38      H        0.41200    0.26420    0.09000    1.000
    C39      C        0.69924    0.94680    0.82387    1.000
    H40      H        0.70933    0.97227    0.76197    1.000
    C41      C        0.66225    0.93293    0.91997    1.000
    C42      C        0.98229    0.56183    0.67833    1.000
    H43      H        0.95757    0.55243    0.74333    1.000
    C44      C        0.63945    0.96001    0.92827    1.000
    C45      C        0.92388    0.60377    0.62213    1.000
    C46      C        0.56132    0.89588    0.89317    1.000
    H47      H        0.57183    0.87997    0.83637    1.000
    C48      C        0.84958    0.54539    0.58333    1.000
    H49      H        0.82907    0.51773    0.54133    1.000
    C50      C        0.83521    0.56928    0.66913    1.000
    H51      H        0.80467    0.55703    0.68613    1.000
    C52      C        0.90662    0.62608    0.70533    1.000
    H53      H        0.92647    0.65413    0.74633    1.000
    C54      C        0.07428    0.48540    0.86523    1.000
    O55      O        0.38795    0.15464    0.64630    1.000
    O56      O        0.06160    0.47726    0.72953    1.000
    C57      C        0.45484    0.16120    0.56530    1.000
    F58      F        0.13957    0.48381    0.78383    1.000
    F59      F        0.48183    0.20330    0.59730    1.000
    F60      F        0.45444    0.13558    0.68670    1.000
    Ag61     Ag       0.65081    0.81271    0.16058    1.000
    O62      O        0.32746    0.33354    0.24270    1.000
    N63      N        0.67022    0.87173    0.01057    1.000
    N64      N        0.52977    0.94278    0.06297    1.000
    C65      C        0.70536    0.88545    0.91587    1.000
    H66      H        0.72023    0.86917    0.91367    1.000
    C67      C        0.38734    0.25573    0.15480    1.000
    H68      H        0.07867    0.59753    0.42333    1.000
    C69      C        0.36591    0.28013    0.15720    1.000
    H70      H        0.37600    0.30560    0.09530    1.000
    C71      C        0.32892    0.26626    0.25330    1.000
    C72      C        0.64895    0.89517    0.01167    1.000
    H73      H        0.62423    0.88577    0.07667    1.000
    C74      C        0.30612    0.29334    0.26160    1.000
    C75      C        0.59054    0.93711    0.95547    1.000
    C76      C        0.22799    0.22921    0.22650    1.000
    H77      H        0.23850    0.21330    0.16970    1.000
    C78      C        0.51624    0.87873    0.91667    1.000
    H79      H        0.49573    0.85107    0.87467    1.000
    C80      C        0.50187    0.90262    0.00247    1.000
    H81      H        0.47133    0.89037    0.01947    1.000
    C82      C        0.57328    0.95942    0.03867    1.000
    H83      H        0.59313    0.98747    0.07967    1.000
    C84      C        0.74094    0.81874    0.19857    1.000
    O85      O        0.05462    0.48797    0.97963    1.000
    O86      O        0.72826    0.81060    0.06287    1.000
    C87      C        0.12151    0.49453    0.89863    1.000
    F88      F        0.80623    0.81715    0.11717    1.000
    F89      F        0.14850    0.53663    0.93063    1.000
    F90      F        0.12111    0.46891    0.02003    1.000
    Ag91     Ag       0.85395    0.17143    0.49392    1.000
    O92      O        0.33313    0.32725    0.57603    1.000
    N93      N        0.79494    0.13183    0.34390    1.000
    N94      N        0.72389    0.92033    0.39630    1.000
    C95      C        0.78122    0.15325    0.24920    1.000
    H96      H        0.79750    0.18440    0.24700    1.000
    C97      C        0.41094    0.46494    0.48813    1.000
    H98      H        0.06913    0.81447    0.75667    1.000
    C99      C        0.38654    0.41911    0.49053    1.000
    H100     H        0.36107    0.40373    0.42863    1.000
    C101     C        0.40041    0.39599    0.58663    1.000
    C102     C        0.77150    0.08712    0.34500    1.000
    H103     H        0.78090    0.07180    0.41000    1.000
    C104     C        0.37333    0.34611    0.59493    1.000
    C105     C        0.72956    0.98677    0.28880    1.000
    C106     C        0.43746    0.33211    0.55983    1.000
    H107     H        0.45337    0.35853    0.50303    1.000
    C108     C        0.78794    0.97085    0.25000    1.000
    H109     H        0.81560    0.97800    0.20800    1.000
    C110     C        0.76405    0.93259    0.33580    1.000
    H111     H        0.77630    0.91430    0.35280    1.000
    C112     C        0.70725    0.94720    0.37200    1.000
    H113     H        0.67920    0.93900    0.41300    1.000
    C114     C        0.84793    0.25554    0.53190    1.000
    O115     O        0.17869    0.89998    0.31297    1.000
    O116     O        0.85607    0.25100    0.39620    1.000
    C117     C        0.17213    0.96031    0.23197    1.000
    F118     F        0.84952    0.32242    0.45050    1.000
    F119     F        0.13003    0.94520    0.26397    1.000
    F120     F        0.19775    0.98553    0.35337    1.000
    Ag121    Ag       0.52062    0.50476    0.82725    1.000
    O122     O        0.99979    0.66059    0.90937    1.000
    N123     N        0.46161    0.46516    0.67723    1.000
    N124     N        0.39056    0.25366    0.72963    1.000
    C125     C        0.44789    0.48658    0.58253    1.000
    H126     H        0.46417    0.51773    0.58033    1.000
    C127     C        0.07760    0.79828    0.82147    1.000
    H128     H        0.73580    0.14780    0.09000    1.000
    C129     C        0.05320    0.75245    0.82387    1.000
    H130     H        0.02773    0.73707    0.76197    1.000
    C131     C        0.06707    0.72933    0.91997    1.000
    C132     C        0.43817    0.42045    0.67833    1.000
    H133     H        0.44757    0.40513    0.74333    1.000
    C134     C        0.03999    0.67945    0.92827    1.000
    C135     C        0.39623    0.32010    0.62213    1.000
    C136     C        0.10412    0.66545    0.89317    1.000
    H137     H        0.12003    0.69187    0.83637    1.000
    C138     C        0.45461    0.30418    0.58333    1.000
    H139     H        0.48227    0.31133    0.54133    1.000
    C140     C        0.43072    0.26592    0.66913    1.000
    H141     H        0.44297    0.24763    0.68613    1.000
    C142     C        0.37392    0.28053    0.70533    1.000
    H143     H        0.34587    0.27233    0.74633    1.000
    C144     C        0.51460    0.58887    0.86523    1.000
    O145     O        0.84536    0.23331    0.64630    1.000
    O146     O        0.52274    0.58433    0.72953    1.000
    C147     C        0.83880    0.29364    0.56530    1.000
    F148     F        0.51619    0.65575    0.78383    1.000
    F149     F        0.79670    0.27853    0.59730    1.000
    F150     F        0.86442    0.31886    0.68670    1.000
    Ag151    Ag       0.18729    0.83809    0.16058    1.000
    O152     O        0.66646    0.99392    0.24270    1.000
    N153     N        0.12827    0.79850    0.01057    1.000
    N154     N        0.05722    0.58700    0.06297    1.000
    C155     C        0.11455    0.81992    0.91587    1.000
    H156     H        0.13083    0.85107    0.91367    1.000
    C157     C        0.74427    0.13161    0.15480    1.000
    H158     H        0.40247    0.48113    0.42333    1.000
    C159     C        0.71987    0.08578    0.15720    1.000
    H160     H        0.69440    0.07040    0.09530    1.000
    C161     C        0.73374    0.06266    0.25330    1.000
    C162     C        0.10483    0.75379    0.01167    1.000
    H163     H        0.11423    0.73847    0.07667    1.000
    C164     C        0.70666    0.01278    0.26160    1.000
    C165     C        0.06289    0.65344    0.95547    1.000
    C166     C        0.77079    0.99878    0.22650    1.000
    H167     H        0.78670    0.02520    0.16970    1.000
    C168     C        0.12127    0.63752    0.91667    1.000
    H169     H        0.14893    0.64467    0.87467    1.000
    C170     C        0.09738    0.59926    0.00247    1.000
    H171     H        0.10963    0.58097    0.01947    1.000
    C172     C        0.04058    0.61387    0.03867    1.000
    H173     H        0.01253    0.60567    0.07967    1.000
    C174     C        0.18126    0.92221    0.19857    1.000
    O175     O        0.51203    0.56664    0.97963    1.000
    O176     O        0.18940    0.91767    0.06287    1.000
    C177     C        0.50547    0.62697    0.89863    1.000
    F178     F        0.18285    0.98909    0.11717    1.000
    F179     F        0.46337    0.61186    0.93063    1.000
    F180     F        0.53109    0.65219    0.02003    1.000
    Ag181    Ag       0.82857    0.68253    0.49392    1.000
    O182     O        0.67275    0.00587    0.57603    1.000
    N183     N        0.86817    0.66311    0.34390    1.000
    N184     N        0.07967    0.80356    0.39630    1.000
    C185     C        0.84675    0.62797    0.24920    1.000
    H186     H        0.81560    0.61310    0.24700    1.000
    C187     C        0.53506    0.94599    0.48813    1.000
    H188     H        0.18553    0.25467    0.75667    1.000
    C189     C        0.58089    0.96742    0.49053    1.000
    H190     H        0.59627    0.95733    0.42863    1.000
    C191     C        0.60401    0.00441    0.58663    1.000
    C192     C        0.91288    0.68438    0.34500    1.000
    H193     H        0.92820    0.70910    0.41000    1.000
    C194     C        0.65389    0.02721    0.59493    1.000
    C195     C        0.01323    0.74279    0.28880    1.000
    C196     C        0.66789    0.10534    0.55983    1.000
    H197     H        0.64147    0.09483    0.50303    1.000
    C198     C        0.02915    0.81709    0.25000    1.000
    H199     H        0.02200    0.83760    0.20800    1.000
    C200     C        0.06741    0.83146    0.33580    1.000
    H201     H        0.08570    0.86200    0.35280    1.000
    C202     C        0.05280    0.76005    0.37200    1.000
    H203     H        0.06100    0.74020    0.41300    1.000
    C204     C        0.74446    0.59239    0.53190    1.000
    O205     O        0.10002    0.27872    0.31297    1.000
    O206     O        0.74900    0.60507    0.39620    1.000
    C207     C        0.03969    0.21183    0.23197    1.000
    F208     F        0.67758    0.52710    0.45050    1.000
    F209     F        0.05480    0.18484    0.26397    1.000
    F210     F        0.01447    0.21223    0.35337    1.000
    Ag211    Ag       0.49524    0.01586    0.82725    1.000
    O212     O        0.33941    0.33921    0.90937    1.000
    N213     N        0.53484    0.99644    0.67723    1.000
    N214     N        0.74634    0.13689    0.72963    1.000
    C215     C        0.51342    0.96130    0.58253    1.000
    H216     H        0.48227    0.94643    0.58033    1.000
    C217     C        0.20172    0.27933    0.82147    1.000
    H218     H        0.85220    0.58800    0.09000    1.000
    C219     C        0.24755    0.30076    0.82387    1.000
    H220     H        0.26293    0.29067    0.76197    1.000
    C221     C        0.27067    0.33775    0.91997    1.000
    C222     C        0.57955    0.01771    0.67833    1.000
    H223     H        0.59487    0.04243    0.74333    1.000
    C224     C        0.32055    0.36055    0.92827    1.000
    C225     C        0.67990    0.07612    0.62213    1.000
    C226     C        0.33455    0.43868    0.89317    1.000
    H227     H        0.30813    0.42817    0.83637    1.000
    C228     C        0.69582    0.15042    0.58333    1.000
    H229     H        0.68867    0.17093    0.54133    1.000
    C230     C        0.73408    0.16479    0.66913    1.000
    H231     H        0.75237    0.19533    0.68613    1.000
    C232     C        0.71947    0.09338    0.70533    1.000
    H233     H        0.72767    0.07353    0.74633    1.000
    C234     C        0.41113    0.92572    0.86523    1.000
    O235     O        0.76669    0.61205    0.64630    1.000
    O236     O        0.41567    0.93840    0.72953    1.000
    C237     C        0.70636    0.54516    0.56530    1.000
    F238     F        0.34425    0.86043    0.78383    1.000
    F239     F        0.72147    0.51817    0.59730    1.000
    F240     F        0.68114    0.54556    0.68670    1.000
    Ag241    Ag       0.16191    0.34919    0.16058    1.000
    O242     O        0.00608    0.67254    0.24270    1.000
    N243     N        0.20150    0.32978    0.01057    1.000
    N244     N        0.41300    0.47023    0.06297    1.000
    C245     C        0.18008    0.29464    0.91587    1.000
    H246     H        0.14893    0.27977    0.91367    1.000
    C247     C        0.86839    0.61266    0.15480    1.000
    H248     H        0.51887    0.92133    0.42333    1.000
    C249     C        0.91422    0.63409    0.15720    1.000
    H250     H        0.92960    0.62400    0.09530    1.000
    C251     C        0.93734    0.67108    0.25330    1.000
    C252     C        0.24621    0.35105    0.01167    1.000
    H253     H        0.26153    0.37577    0.07667    1.000
    C254     C        0.98722    0.69388    0.26160    1.000
    C255     C        0.34656    0.40946    0.95547    1.000
    C256     C        0.00122    0.77201    0.22650    1.000
    H257     H        0.97480    0.76150    0.16970    1.000
    C258     C        0.36248    0.48376    0.91667    1.000
    H259     H        0.35533    0.50427    0.87467    1.000
    C260     C        0.40074    0.49813    0.00247    1.000
    H261     H        0.41903    0.52867    0.01947    1.000
    C262     C        0.38613    0.42672    0.03867    1.000
    H263     H        0.39433    0.40687    0.07967    1.000
    C264     C        0.07779    0.25906    0.19857    1.000
    O265     O        0.43336    0.94538    0.97963    1.000
    O266     O        0.08233    0.27174    0.06287    1.000
    C267     C        0.37303    0.87849    0.89863    1.000
    F268     F        0.01091    0.19377    0.11717    1.000
    F269     F        0.38814    0.85150    0.93063    1.000
    F270     F        0.34781    0.87889    0.02003    1.000
    Ag271    Ag       0.68253    0.85395    0.50608    1.000
    O272     O        0.00587    0.33313    0.42397    1.000
    N273     N        0.66311    0.79494    0.65610    1.000
    N274     N        0.80356    0.72389    0.60370    1.000
    C275     C        0.62797    0.78122    0.75080    1.000
    H276     H        0.61310    0.79750    0.75300    1.000
    C277     C        0.94599    0.41094    0.51187    1.000
    H278     H        0.25467    0.06913    0.24333    1.000
    C279     C        0.96742    0.38654    0.50947    1.000
    H280     H        0.95733    0.36107    0.57137    1.000
    C281     C        0.00441    0.40041    0.41337    1.000
    C282     C        0.68438    0.77150    0.65500    1.000
    H283     H        0.70910    0.78090    0.59000    1.000
    C284     C        0.02721    0.37333    0.40507    1.000
    C285     C        0.74279    0.72956    0.71120    1.000
    C286     C        0.10534    0.43746    0.44017    1.000
    H287     H        0.09483    0.45337    0.49697    1.000
    C288     C        0.81709    0.78794    0.75000    1.000
    H289     H        0.83760    0.81560    0.79200    1.000
    C290     C        0.83146    0.76405    0.66420    1.000
    H291     H        0.86200    0.77630    0.64720    1.000
    C292     C        0.76005    0.70725    0.62800    1.000
    H293     H        0.74020    0.67920    0.58700    1.000
    C294     C        0.59239    0.84793    0.46810    1.000
    O295     O        0.27872    0.17869    0.68703    1.000
    O296     O        0.60507    0.85607    0.60380    1.000
    C297     C        0.21183    0.17213    0.76803    1.000
    F298     F        0.52710    0.84952    0.54950    1.000
    F299     F        0.18484    0.13003    0.73603    1.000
    F300     F        0.21223    0.19775    0.64663    1.000
    Ag301    Ag       0.34919    0.18729    0.83942    1.000
    O302     O        0.67254    0.66646    0.75730    1.000
    N303     N        0.32978    0.12827    0.98943    1.000
    N304     N        0.47023    0.05722    0.93703    1.000
    C305     C        0.29464    0.11455    0.08413    1.000
    H306     H        0.27977    0.13083    0.08633    1.000
    C307     C        0.61266    0.74427    0.84520    1.000
    H308     H        0.92133    0.40247    0.57667    1.000
    C309     C        0.63409    0.71987    0.84280    1.000
    H310     H        0.62400    0.69440    0.90470    1.000
    C311     C        0.67108    0.73374    0.74670    1.000
    C312     C        0.35105    0.10483    0.98833    1.000
    H313     H        0.37577    0.11423    0.92333    1.000
    C314     C        0.69388    0.70666    0.73840    1.000
    C315     C        0.40946    0.06289    0.04453    1.000
    C316     C        0.77201    0.77079    0.77350    1.000
    H317     H        0.76150    0.78670    0.83030    1.000
    C318     C        0.48376    0.12127    0.08333    1.000
    H319     H        0.50427    0.14893    0.12533    1.000
    C320     C        0.49813    0.09738    0.99753    1.000
    H321     H        0.52867    0.10963    0.98053    1.000
    C322     C        0.42672    0.04058    0.96133    1.000
    H323     H        0.40687    0.01253    0.92033    1.000
    C324     C        0.25906    0.18126    0.80143    1.000
    O325     O        0.94538    0.51203    0.02037    1.000
    O326     O        0.27174    0.18940    0.93713    1.000
    C327     C        0.87849    0.50547    0.10137    1.000
    F328     F        0.19377    0.18285    0.88283    1.000
    F329     F        0.85150    0.46337    0.06937    1.000
    F330     F        0.87889    0.53109    0.97997    1.000
    Ag331    Ag       0.01586    0.52062    0.17275    1.000
    O332     O        0.33921    0.99979    0.09063    1.000
    N333     N        0.99644    0.46161    0.32277    1.000
    N334     N        0.13689    0.39056    0.27037    1.000
    C335     C        0.96130    0.44789    0.41747    1.000
    H336     H        0.94643    0.46417    0.41967    1.000
    C337     C        0.27933    0.07760    0.17853    1.000
    H338     H        0.58800    0.73580    0.91000    1.000
    C339     C        0.30076    0.05320    0.17613    1.000
    H340     H        0.29067    0.02773    0.23803    1.000
    C341     C        0.33775    0.06707    0.08003    1.000
    C342     C        0.01771    0.43817    0.32167    1.000
    H343     H        0.04243    0.44757    0.25667    1.000
    C344     C        0.36055    0.03999    0.07173    1.000
    C345     C        0.07612    0.39623    0.37787    1.000
    C346     C        0.43868    0.10412    0.10683    1.000
    H347     H        0.42817    0.12003    0.16363    1.000
    C348     C        0.15042    0.45461    0.41667    1.000
    H349     H        0.17093    0.48227    0.45867    1.000
    C350     C        0.16479    0.43072    0.33087    1.000
    H351     H        0.19533    0.44297    0.31387    1.000
    C352     C        0.09338    0.37392    0.29467    1.000
    H353     H        0.07353    0.34587    0.25367    1.000
    C354     C        0.92572    0.51460    0.13477    1.000
    O355     O        0.61205    0.84536    0.35370    1.000
    O356     O        0.93840    0.52274    0.27047    1.000
    C357     C        0.54516    0.83880    0.43470    1.000
    F358     F        0.86043    0.51619    0.21617    1.000
    F359     F        0.51817    0.79670    0.40270    1.000
    F360     F        0.54556    0.86442    0.31330    1.000
    Ag361    Ag       0.14605    0.82857    0.50608    1.000
    O362     O        0.66687    0.67275    0.42397    1.000
    N363     N        0.20506    0.86817    0.65610    1.000
    N364     N        0.27611    0.07967    0.60370    1.000
    C365     C        0.21878    0.84675    0.75080    1.000
    H366     H        0.20250    0.81560    0.75300    1.000
    C367     C        0.58906    0.53506    0.51187    1.000
    H368     H        0.93087    0.18553    0.24333    1.000
    C369     C        0.61346    0.58089    0.50947    1.000
    H370     H        0.63893    0.59627    0.57137    1.000
    C371     C        0.59959    0.60401    0.41337    1.000
    C372     C        0.22850    0.91288    0.65500    1.000
    H373     H        0.21910    0.92820    0.59000    1.000
    C374     C        0.62667    0.65389    0.40507    1.000
    C375     C        0.27044    0.01323    0.71120    1.000
    C376     C        0.56254    0.66789    0.44017    1.000
    H377     H        0.54663    0.64147    0.49697    1.000
    C378     C        0.21206    0.02915    0.75000    1.000
    H379     H        0.18440    0.02200    0.79200    1.000
    C380     C        0.23595    0.06741    0.66420    1.000
    H381     H        0.22370    0.08570    0.64720    1.000
    C382     C        0.29275    0.05280    0.62800    1.000
    H383     H        0.32080    0.06100    0.58700    1.000
    C384     C        0.15207    0.74446    0.46810    1.000
    O385     O        0.82131    0.10002    0.68703    1.000
    O386     O        0.14393    0.74900    0.60380    1.000
    C387     C        0.82787    0.03969    0.76803    1.000
    F388     F        0.15048    0.67758    0.54950    1.000
    F389     F        0.86997    0.05480    0.73603    1.000
    F390     F        0.80225    0.01447    0.64663    1.000
    Ag391    Ag       0.81271    0.16191    0.83942    1.000
    O392     O        0.33354    0.00608    0.75730    1.000
    N393     N        0.87173    0.20150    0.98943    1.000
    N394     N        0.94278    0.41300    0.93703    1.000
    C395     C        0.88545    0.18008    0.08413    1.000
    H396     H        0.86917    0.14893    0.08633    1.000
    C397     C        0.25573    0.86839    0.84520    1.000
    H398     H        0.59753    0.51887    0.57667    1.000
    C399     C        0.28013    0.91422    0.84280    1.000
    H400     H        0.30560    0.92960    0.90470    1.000
    C401     C        0.26626    0.93734    0.74670    1.000
    C402     C        0.89517    0.24621    0.98833    1.000
    H403     H        0.88577    0.26153    0.92333    1.000
    C404     C        0.29334    0.98722    0.73840    1.000
    C405     C        0.93711    0.34656    0.04453    1.000
    C406     C        0.22921    0.00122    0.77350    1.000
    H407     H        0.21330    0.97480    0.83030    1.000
    C408     C        0.87873    0.36248    0.08333    1.000
    H409     H        0.85107    0.35533    0.12533    1.000
    C410     C        0.90262    0.40074    0.99753    1.000
    H411     H        0.89037    0.41903    0.98053    1.000
    C412     C        0.95942    0.38613    0.96133    1.000
    H413     H        0.98747    0.39433    0.92033    1.000
    C414     C        0.81874    0.07779    0.80143    1.000
    O415     O        0.48797    0.43336    0.02037    1.000
    O416     O        0.81060    0.08233    0.93713    1.000
    C417     C        0.49453    0.37303    0.10137    1.000
    F418     F        0.81715    0.01091    0.88283    1.000
    F419     F        0.53663    0.38814    0.06937    1.000
    F420     F        0.46891    0.34781    0.97997    1.000
    Ag421    Ag       0.47938    0.49524    0.17275    1.000
    O422     O        0.00021    0.33941    0.09063    1.000
    N423     N        0.53839    0.53484    0.32277    1.000
    N424     N        0.60944    0.74634    0.27037    1.000
    C425     C        0.55211    0.51342    0.41747    1.000
    H426     H        0.53583    0.48227    0.41967    1.000
    C427     C        0.92240    0.20172    0.17853    1.000
    H428     H        0.26420    0.85220    0.91000    1.000
    C429     C        0.94680    0.24755    0.17613    1.000
    H430     H        0.97227    0.26293    0.23803    1.000
    C431     C        0.93293    0.27067    0.08003    1.000
    C432     C        0.56183    0.57955    0.32167    1.000
    H433     H        0.55243    0.59487    0.25667    1.000
    C434     C        0.96001    0.32055    0.07173    1.000
    C435     C        0.60377    0.67990    0.37787    1.000
    C436     C        0.89588    0.33455    0.10683    1.000
    H437     H        0.87997    0.30813    0.16363    1.000
    C438     C        0.54539    0.69582    0.41667    1.000
    H439     H        0.51773    0.68867    0.45867    1.000
    C440     C        0.56928    0.73408    0.33087    1.000
    H441     H        0.55703    0.75237    0.31387    1.000
    C442     C        0.62608    0.71947    0.29467    1.000
    H443     H        0.65413    0.72767    0.25367    1.000
    C444     C        0.48540    0.41113    0.13477    1.000
    O445     O        0.15464    0.76669    0.35370    1.000
    O446     O        0.47726    0.41567    0.27047    1.000
    C447     C        0.16120    0.70636    0.43470    1.000
    F448     F        0.48381    0.34425    0.21617    1.000
    F449     F        0.20330    0.72147    0.40270    1.000
    F450     F        0.13558    0.68114    0.31330    1.000
    Ag451    Ag       0.17143    0.31747    0.50608    1.000
    O452     O        0.32725    0.99413    0.42397    1.000
    N453     N        0.13183    0.33689    0.65610    1.000
    N454     N        0.92033    0.19644    0.60370    1.000
    C455     C        0.15325    0.37203    0.75080    1.000
    H456     H        0.18440    0.38690    0.75300    1.000
    C457     C        0.46494    0.05401    0.51187    1.000
    H458     H        0.81447    0.74533    0.24333    1.000
    C459     C        0.41911    0.03258    0.50947    1.000
    H460     H        0.40373    0.04267    0.57137    1.000
    C461     C        0.39599    0.99559    0.41337    1.000
    C462     C        0.08712    0.31562    0.65500    1.000
    H463     H        0.07180    0.29090    0.59000    1.000
    C464     C        0.34611    0.97279    0.40507    1.000
    C465     C        0.98677    0.25721    0.71120    1.000
    C466     C        0.33211    0.89466    0.44017    1.000
    H467     H        0.35853    0.90517    0.49697    1.000
    C468     C        0.97085    0.18291    0.75000    1.000
    H469     H        0.97800    0.16240    0.79200    1.000
    C470     C        0.93259    0.16854    0.66420    1.000
    H471     H        0.91430    0.13800    0.64720    1.000
    C472     C        0.94720    0.23995    0.62800    1.000
    H473     H        0.93900    0.25980    0.58700    1.000
    C474     C        0.25554    0.40761    0.46810    1.000
    O475     O        0.89998    0.72128    0.68703    1.000
    O476     O        0.25100    0.39493    0.60380    1.000
    C477     C        0.96031    0.78817    0.76803    1.000
    F478     F        0.32242    0.47290    0.54950    1.000
    F479     F        0.94520    0.81516    0.73603    1.000
    F480     F        0.98553    0.78777    0.64663    1.000
    Ag481    Ag       0.83809    0.65081    0.83942    1.000
    O482     O        0.99392    0.32746    0.75730    1.000
    N483     N        0.79850    0.67022    0.98943    1.000
    N484     N        0.58700    0.52977    0.93703    1.000
    C485     C        0.81992    0.70536    0.08413    1.000
    H486     H        0.85107    0.72023    0.08633    1.000
    C487     C        0.13161    0.38734    0.84520    1.000
    H488     H        0.48113    0.07867    0.57667    1.000
    C489     C        0.08578    0.36591    0.84280    1.000
    H490     H        0.07040    0.37600    0.90470    1.000
    C491     C        0.06266    0.32892    0.74670    1.000
    C492     C        0.75379    0.64895    0.98833    1.000
    H493     H        0.73847    0.62423    0.92333    1.000
    C494     C        0.01278    0.30612    0.73840    1.000
    C495     C        0.65344    0.59054    0.04453    1.000
    C496     C        0.99878    0.22799    0.77350    1.000
    H497     H        0.02520    0.23850    0.83030    1.000
    C498     C        0.63752    0.51624    0.08333    1.000
    H499     H        0.64467    0.49573    0.12533    1.000
    C500     C        0.59926    0.50187    0.99753    1.000
    H501     H        0.58097    0.47133    0.98053    1.000
    C502     C        0.61387    0.57328    0.96133    1.000
    H503     H        0.60567    0.59313    0.92033    1.000
    C504     C        0.92221    0.74094    0.80143    1.000
    O505     O        0.56664    0.05462    0.02037    1.000
    O506     O        0.91767    0.72826    0.93713    1.000
    C507     C        0.62697    0.12151    0.10137    1.000
    F508     F        0.98909    0.80623    0.88283    1.000
    F509     F        0.61186    0.14850    0.06937    1.000
    F510     F        0.65219    0.12111    0.97997    1.000
    Ag511    Ag       0.50476    0.98414    0.17275    1.000
    O512     O        0.66059    0.66079    0.09063    1.000
    N513     N        0.46516    0.00356    0.32277    1.000
    N514     N        0.25366    0.86311    0.27037    1.000
    C515     C        0.48658    0.03870    0.41747    1.000
    H516     H        0.51773    0.05357    0.41967    1.000
    C517     C        0.79828    0.72067    0.17853    1.000
    H518     H        0.14780    0.41200    0.91000    1.000
    C519     C        0.75245    0.69924    0.17613    1.000
    H520     H        0.73707    0.70933    0.23803    1.000
    C521     C        0.72933    0.66225    0.08003    1.000
    C522     C        0.42045    0.98229    0.32167    1.000
    H523     H        0.40513    0.95757    0.25667    1.000
    C524     C        0.67945    0.63945    0.07173    1.000
    C525     C        0.32010    0.92388    0.37787    1.000
    C526     C        0.66545    0.56132    0.10683    1.000
    H527     H        0.69187    0.57183    0.16363    1.000
    C528     C        0.30418    0.84958    0.41667    1.000
    H529     H        0.31133    0.82907    0.45867    1.000
    C530     C        0.26592    0.83521    0.33087    1.000
    H531     H        0.24763    0.80467    0.31387    1.000
    C532     C        0.28053    0.90662    0.29467    1.000
    H533     H        0.27233    0.92647    0.25367    1.000
    C534     C        0.58887    0.07428    0.13477    1.000
    O535     O        0.23331    0.38795    0.35370    1.000
    O536     O        0.58433    0.06160    0.27047    1.000
    C537     C        0.29364    0.45484    0.43470    1.000
    F538     F        0.65575    0.13957    0.21617    1.000
    F539     F        0.27853    0.48183    0.40270    1.000
    F540     F        0.31886    0.45444    0.31330    1.000
