# CIF file generated by openbabel 3.1.0, see https://openbabel.org
data_I
_chemical_name_common 'image0'
_cell_length_a 21.8599
_cell_length_b 21.8599
_cell_length_c 21.3525
_cell_angle_alpha 90
_cell_angle_beta 90
_cell_angle_gamma 120
_space_group_name_H-M_alt 'P 1'
_space_group_name_Hall 'P 1'
loop_
    _symmetry_equiv_pos_as_xyz
    x,y,z
loop_
    _atom_site_label
    _atom_site_type_symbol
    _atom_site_fract_x
    _atom_site_fract_y
    _atom_site_fract_z
    _atom_site_occupancy
    Cu1      Cu       0.53753    0.06785    0.48923    1.000
    O1       O        0.45710    0.05410    0.43613    1.000
    O2       O        0.39110    0.93930    0.45808    1.000
    O3       O        0.37580    0.13390    0.25007    1.000
    O4       O        0.26000    0.08160    0.23111    1.000
    O5       O        0.15790    0.80720    0.45190    1.000
    N1       N        0.14580    0.88160    0.38140    1.000
    C1       C        0.40140    0.99460    0.43220    1.000
    C2       C        0.31280    0.08920    0.26050    1.000
    C3       C        0.35520    0.04300    0.34880    1.000
    H1       H        0.40100    0.07990    0.34220    1.000
    C4       C        0.34150    0.99160    0.39360    1.000
    C5       C        0.27290    0.93720    0.40410    1.000
    H2       H        0.26430    0.90220    0.43320    1.000
    C6       C        0.21700    0.93500    0.37110    1.000
    C7       C        0.23070    0.98590    0.32560    1.000
    H3       H        0.19370    0.98450    0.30300    1.000
    C8       C        0.29930    0.03850    0.31400    1.000
    C9       C        0.12190    0.82390    0.42080    1.000
    C10      C        0.08740    0.88200    0.34670    1.000
    H4       H        0.09100    0.87610    0.30210    1.000
    H5       H        0.08650    0.92540    0.35400    1.000
    C11      C        0.02340    0.81950    0.37420    1.000
    C12      C        0.04400    0.78680    0.41680    1.000
    C13      C        0.99560    0.72590    0.44730    1.000
    H6       H        0.01040    0.70340    0.47540    1.000
    C14      C        0.92570    0.69970    0.43540    1.000
    H7       H        0.89190    0.65930    0.45590    1.000
    C15      C        0.90490    0.73350    0.39230    1.000
    H8       H        0.85700    0.71460    0.38420    1.000
    C16      C        0.95230    0.79320    0.36160    1.000
    H9       H        0.93750    0.81550    0.33330    1.000
    Cu2      Cu       0.20420    0.40118    0.82256    1.000
    O6       O        0.12377    0.38743    0.76946    1.000
    O7       O        0.05777    0.27263    0.79141    1.000
    O8       O        0.04247    0.46723    0.58340    1.000
    O9       O        0.92667    0.41493    0.56444    1.000
    O10      O        0.82457    0.14053    0.78523    1.000
    N2       N        0.81247    0.21493    0.71473    1.000
    C17      C        0.06807    0.32793    0.76553    1.000
    C18      C        0.97947    0.42253    0.59383    1.000
    C19      C        0.02187    0.37633    0.68213    1.000
    H10      H        0.06767    0.41323    0.67553    1.000
    C20      C        0.00817    0.32493    0.72693    1.000
    C21      C        0.93957    0.27053    0.73743    1.000
    H11      H        0.93097    0.23553    0.76653    1.000
    C22      C        0.88367    0.26833    0.70443    1.000
    C23      C        0.89737    0.31923    0.65893    1.000
    H12      H        0.86037    0.31783    0.63633    1.000
    C24      C        0.96597    0.37183    0.64733    1.000
    C25      C        0.78857    0.15723    0.75413    1.000
    C26      C        0.75407    0.21533    0.68003    1.000
    H13      H        0.75767    0.20943    0.63543    1.000
    H14      H        0.75317    0.25873    0.68733    1.000
    C27      C        0.69007    0.15283    0.70753    1.000
    C28      C        0.71067    0.12013    0.75013    1.000
    C29      C        0.66227    0.05923    0.78063    1.000
    H15      H        0.67707    0.03673    0.80873    1.000
    C30      C        0.59237    0.03303    0.76873    1.000
    H16      H        0.55857    0.99263    0.78923    1.000
    C31      C        0.57157    0.06683    0.72563    1.000
    H17      H        0.52367    0.04793    0.71753    1.000
    C32      C        0.61897    0.12653    0.69493    1.000
    H18      H        0.60417    0.14883    0.66663    1.000
    Cu3      Cu       0.87086    0.73452    0.15590    1.000
    O11      O        0.79043    0.72077    0.10280    1.000
    O12      O        0.72443    0.60597    0.12475    1.000
    O13      O        0.70913    0.80057    0.91674    1.000
    O14      O        0.59333    0.74827    0.89778    1.000
    O15      O        0.49123    0.47387    0.11857    1.000
    N3       N        0.47913    0.54827    0.04807    1.000
    C33      C        0.73473    0.66127    0.09887    1.000
    C34      C        0.64613    0.75587    0.92717    1.000
    C35      C        0.68853    0.70967    0.01547    1.000
    H19      H        0.73433    0.74657    0.00887    1.000
    C36      C        0.67483    0.65827    0.06027    1.000
    C37      C        0.60623    0.60387    0.07077    1.000
    H20      H        0.59763    0.56887    0.09987    1.000
    C38      C        0.55033    0.60167    0.03777    1.000
    C39      C        0.56403    0.65257    0.99227    1.000
    H21      H        0.52703    0.65117    0.96967    1.000
    C40      C        0.63263    0.70517    0.98067    1.000
    C41      C        0.45523    0.49057    0.08747    1.000
    C42      C        0.42073    0.54867    0.01337    1.000
    H22      H        0.42433    0.54277    0.96877    1.000
    H23      H        0.41983    0.59207    0.02067    1.000
    C43      C        0.35673    0.48617    0.04087    1.000
    C44      C        0.37733    0.45347    0.08347    1.000
    C45      C        0.32893    0.39257    0.11397    1.000
    H24      H        0.34373    0.37007    0.14207    1.000
    C46      C        0.25903    0.36637    0.10207    1.000
    H25      H        0.22523    0.32597    0.12257    1.000
    C47      C        0.23823    0.40017    0.05897    1.000
    H26      H        0.19033    0.38127    0.05087    1.000
    C48      C        0.28563    0.45987    0.02827    1.000
    H27      H        0.27083    0.48217    0.99997    1.000
    Cu4      Cu       0.93215    0.46968    0.48923    1.000
    O16      O        0.94590    0.40300    0.43613    1.000
    O17      O        0.06070    0.45180    0.45808    1.000
    O18      O        0.86610    0.24190    0.25007    1.000
    O19      O        0.91840    0.17840    0.23111    1.000
    O20      O        0.19280    0.35070    0.45190    1.000
    N4       N        0.11840    0.26420    0.38140    1.000
    C49      C        0.00540    0.40680    0.43220    1.000
    C50      C        0.91080    0.22360    0.26050    1.000
    C51      C        0.95700    0.31220    0.34880    1.000
    H28      H        0.92010    0.32110    0.34220    1.000
    C52      C        0.00840    0.34990    0.39360    1.000
    C53      C        0.06280    0.33570    0.40410    1.000
    H29      H        0.09780    0.36210    0.43320    1.000
    C54      C        0.06500    0.28200    0.37110    1.000
    C55      C        0.01410    0.24480    0.32560    1.000
    H30      H        0.01550    0.20920    0.30300    1.000
    C56      C        0.96150    0.26080    0.31400    1.000
    C57      C        0.17610    0.29800    0.42080    1.000
    C58      C        0.11800    0.20540    0.34670    1.000
    H31      H        0.12390    0.21490    0.30210    1.000
    H32      H        0.07460    0.16110    0.35400    1.000
    C59      C        0.18050    0.20390    0.37420    1.000
    C60      C        0.21320    0.25720    0.41680    1.000
    C61      C        0.27410    0.26970    0.44730    1.000
    H33      H        0.29660    0.30700    0.47540    1.000
    C62      C        0.30030    0.22600    0.43540    1.000
    H34      H        0.34070    0.23260    0.45590    1.000
    C63      C        0.26650    0.17140    0.39230    1.000
    H35      H        0.28540    0.14240    0.38420    1.000
    C64      C        0.20680    0.15910    0.36160    1.000
    H36      H        0.18450    0.12200    0.33330    1.000
    Cu5      Cu       0.59882    0.80301    0.82256    1.000
    O21      O        0.61257    0.73633    0.76946    1.000
    O22      O        0.72737    0.78513    0.79141    1.000
    O23      O        0.53277    0.57523    0.58340    1.000
    O24      O        0.58507    0.51173    0.56444    1.000
    O25      O        0.85947    0.68403    0.78523    1.000
    N5       N        0.78507    0.59753    0.71473    1.000
    C65      C        0.67207    0.74013    0.76553    1.000
    C66      C        0.57747    0.55693    0.59383    1.000
    C67      C        0.62367    0.64553    0.68213    1.000
    H37      H        0.58677    0.65443    0.67553    1.000
    C68      C        0.67507    0.68323    0.72693    1.000
    C69      C        0.72947    0.66903    0.73743    1.000
    H38      H        0.76447    0.69543    0.76653    1.000
    C70      C        0.73167    0.61533    0.70443    1.000
    C71      C        0.68077    0.57813    0.65893    1.000
    H39      H        0.68217    0.54253    0.63633    1.000
    C72      C        0.62817    0.59413    0.64733    1.000
    C73      C        0.84277    0.63133    0.75413    1.000
    C74      C        0.78467    0.53873    0.68003    1.000
    H40      H        0.79057    0.54823    0.63543    1.000
    H41      H        0.74127    0.49443    0.68733    1.000
    C75      C        0.84717    0.53723    0.70753    1.000
    C76      C        0.87987    0.59053    0.75013    1.000
    C77      C        0.94077    0.60303    0.78063    1.000
    H42      H        0.96327    0.64033    0.80873    1.000
    C78      C        0.96697    0.55933    0.76873    1.000
    H43      H        0.00737    0.56593    0.78923    1.000
    C79      C        0.93317    0.50473    0.72563    1.000
    H44      H        0.95207    0.47573    0.71753    1.000
    C80      C        0.87347    0.49243    0.69493    1.000
    H45      H        0.85117    0.45533    0.66663    1.000
    Cu6      Cu       0.26548    0.13635    0.15590    1.000
    O26      O        0.27923    0.06967    0.10280    1.000
    O27      O        0.39403    0.11847    0.12475    1.000
    O28      O        0.19943    0.90857    0.91674    1.000
    O29      O        0.25173    0.84507    0.89778    1.000
    O30      O        0.52613    0.01737    0.11857    1.000
    N6       N        0.45173    0.93087    0.04807    1.000
    C81      C        0.33873    0.07347    0.09887    1.000
    C82      C        0.24413    0.89027    0.92717    1.000
    C83      C        0.29033    0.97887    0.01547    1.000
    H46      H        0.25343    0.98777    0.00887    1.000
    C84      C        0.34173    0.01657    0.06027    1.000
    C85      C        0.39613    0.00237    0.07077    1.000
    H47      H        0.43113    0.02877    0.09987    1.000
    C86      C        0.39833    0.94867    0.03777    1.000
    C87      C        0.34743    0.91147    0.99227    1.000
    H48      H        0.34883    0.87587    0.96967    1.000
    C88      C        0.29483    0.92747    0.98067    1.000
    C89      C        0.50943    0.96467    0.08747    1.000
    C90      C        0.45133    0.87207    0.01337    1.000
    H49      H        0.45723    0.88157    0.96877    1.000
    H50      H        0.40793    0.82777    0.02067    1.000
    C91      C        0.51383    0.87057    0.04087    1.000
    C92      C        0.54653    0.92387    0.08347    1.000
    C93      C        0.60743    0.93637    0.11397    1.000
    H51      H        0.62993    0.97367    0.14207    1.000
    C94      C        0.63363    0.89267    0.10207    1.000
    H52      H        0.67403    0.89927    0.12257    1.000
    C95      C        0.59983    0.83807    0.05897    1.000
    H53      H        0.61873    0.80907    0.05087    1.000
    C96      C        0.54013    0.82577    0.02827    1.000
    H54      H        0.51783    0.78867    0.99997    1.000
    Cu7      Cu       0.53032    0.46247    0.48923    1.000
    O31      O        0.59700    0.54290    0.43613    1.000
    O32      O        0.54820    0.60890    0.45808    1.000
    O33      O        0.75810    0.62420    0.25007    1.000
    O34      O        0.82160    0.74000    0.23111    1.000
    O35      O        0.64930    0.84210    0.45190    1.000
    N7       N        0.73580    0.85420    0.38140    1.000
    C97      C        0.59320    0.59860    0.43220    1.000
    C98      C        0.77640    0.68720    0.26050    1.000
    C99      C        0.68780    0.64480    0.34880    1.000
    H55      H        0.67890    0.59900    0.34220    1.000
    C100     C        0.65010    0.65850    0.39360    1.000
    C101     C        0.66430    0.72710    0.40410    1.000
    H56      H        0.63790    0.73570    0.43320    1.000
    C102     C        0.71800    0.78300    0.37110    1.000
    C103     C        0.75520    0.76930    0.32560    1.000
    H57      H        0.79080    0.80630    0.30300    1.000
    C104     C        0.73920    0.70070    0.31400    1.000
    C105     C        0.70200    0.87810    0.42080    1.000
    C106     C        0.79460    0.91260    0.34670    1.000
    H58      H        0.78510    0.90900    0.30210    1.000
    H59      H        0.83890    0.91350    0.35400    1.000
    C107     C        0.79610    0.97660    0.37420    1.000
    C108     C        0.74280    0.95600    0.41680    1.000
    C109     C        0.73030    0.00440    0.44730    1.000
    H60      H        0.69300    0.98960    0.47540    1.000
    C110     C        0.77400    0.07430    0.43540    1.000
    H61      H        0.76740    0.10810    0.45590    1.000
    C111     C        0.82860    0.09510    0.39230    1.000
    H62      H        0.85760    0.14300    0.38420    1.000
    C112     C        0.84090    0.04770    0.36160    1.000
    H63      H        0.87800    0.06250    0.33330    1.000
    Cu8      Cu       0.19699    0.79580    0.82256    1.000
    O36      O        0.26367    0.87623    0.76946    1.000
    O37      O        0.21487    0.94223    0.79141    1.000
    O38      O        0.42477    0.95753    0.58340    1.000
    O39      O        0.48827    0.07333    0.56444    1.000
    O40      O        0.31597    0.17543    0.78523    1.000
    N8       N        0.40247    0.18753    0.71473    1.000
    C113     C        0.25987    0.93193    0.76553    1.000
    C114     C        0.44307    0.02053    0.59383    1.000
    C115     C        0.35447    0.97813    0.68213    1.000
    H64      H        0.34557    0.93233    0.67553    1.000
    C116     C        0.31677    0.99183    0.72693    1.000
    C117     C        0.33097    0.06043    0.73743    1.000
    H65      H        0.30457    0.06903    0.76653    1.000
    C118     C        0.38467    0.11633    0.70443    1.000
    C119     C        0.42187    0.10263    0.65893    1.000
    H66      H        0.45747    0.13963    0.63633    1.000
    C120     C        0.40587    0.03403    0.64733    1.000
    C121     C        0.36867    0.21143    0.75413    1.000
    C122     C        0.46127    0.24593    0.68003    1.000
    H67      H        0.45177    0.24233    0.63543    1.000
    H68      H        0.50557    0.24683    0.68733    1.000
    C123     C        0.46277    0.30993    0.70753    1.000
    C124     C        0.40947    0.28933    0.75013    1.000
    C125     C        0.39697    0.33773    0.78063    1.000
    H69      H        0.35967    0.32293    0.80873    1.000
    C126     C        0.44067    0.40763    0.76873    1.000
    H70      H        0.43407    0.44143    0.78923    1.000
    C127     C        0.49527    0.42843    0.72563    1.000
    H71      H        0.52427    0.47633    0.71753    1.000
    C128     C        0.50757    0.38103    0.69493    1.000
    H72      H        0.54467    0.39583    0.66663    1.000
    Cu9      Cu       0.86365    0.12914    0.15590    1.000
    O41      O        0.93033    0.20957    0.10280    1.000
    O42      O        0.88153    0.27557    0.12475    1.000
    O43      O        0.09143    0.29087    0.91674    1.000
    O44      O        0.15493    0.40667    0.89778    1.000
    O45      O        0.98263    0.50877    0.11857    1.000
    N9       N        0.06913    0.52087    0.04807    1.000
    C129     C        0.92653    0.26527    0.09887    1.000
    C130     C        0.10973    0.35387    0.92717    1.000
    C131     C        0.02113    0.31147    0.01547    1.000
    H73      H        0.01223    0.26567    0.00887    1.000
    C132     C        0.98343    0.32517    0.06027    1.000
    C133     C        0.99763    0.39377    0.07077    1.000
    H74      H        0.97123    0.40237    0.09987    1.000
    C134     C        0.05133    0.44967    0.03777    1.000
    C135     C        0.08853    0.43597    0.99227    1.000
    H75      H        0.12413    0.47297    0.96967    1.000
    C136     C        0.07253    0.36737    0.98067    1.000
    C137     C        0.03533    0.54477    0.08747    1.000
    C138     C        0.12793    0.57927    0.01337    1.000
    H76      H        0.11843    0.57567    0.96877    1.000
    H77      H        0.17223    0.58017    0.02067    1.000
    C139     C        0.12943    0.64327    0.04087    1.000
    C140     C        0.07613    0.62267    0.08347    1.000
    C141     C        0.06363    0.67107    0.11397    1.000
    H78      H        0.02633    0.65627    0.14207    1.000
    C142     C        0.10733    0.74097    0.10207    1.000
    H79      H        0.10073    0.77477    0.12257    1.000
    C143     C        0.16193    0.76177    0.05897    1.000
    H80      H        0.19093    0.80967    0.05087    1.000
    C144     C        0.17423    0.71437    0.02827    1.000
    H81      H        0.21133    0.72917    0.99997    1.000
    Cu10     Cu       0.46247    0.93215    0.51077    1.000
    O46      O        0.54290    0.94590    0.56387    1.000
    O47      O        0.60890    0.06070    0.54192    1.000
    O48      O        0.62420    0.86610    0.74993    1.000
    O49      O        0.74000    0.91840    0.76889    1.000
    O50      O        0.84210    0.19280    0.54810    1.000
    N10      N        0.85420    0.11840    0.61860    1.000
    C145     C        0.59860    0.00540    0.56780    1.000
    C146     C        0.68720    0.91080    0.73950    1.000
    C147     C        0.64480    0.95700    0.65120    1.000
    H82      H        0.59900    0.92010    0.65780    1.000
    C148     C        0.65850    0.00840    0.60640    1.000
    C149     C        0.72710    0.06280    0.59590    1.000
    H83      H        0.73570    0.09780    0.56680    1.000
    C150     C        0.78300    0.06500    0.62890    1.000
    C151     C        0.76930    0.01410    0.67440    1.000
    H84      H        0.80630    0.01550    0.69700    1.000
    C152     C        0.70070    0.96150    0.68600    1.000
    C153     C        0.87810    0.17610    0.57920    1.000
    C154     C        0.91260    0.11800    0.65330    1.000
    H85      H        0.90900    0.12390    0.69790    1.000
    H86      H        0.91350    0.07460    0.64600    1.000
    C155     C        0.97660    0.18050    0.62580    1.000
    C156     C        0.95600    0.21320    0.58320    1.000
    C157     C        0.00440    0.27410    0.55270    1.000
    H87      H        0.98960    0.29660    0.52460    1.000
    C158     C        0.07430    0.30030    0.56460    1.000
    H88      H        0.10810    0.34070    0.54410    1.000
    C159     C        0.09510    0.26650    0.60770    1.000
    H89      H        0.14300    0.28540    0.61580    1.000
    C160     C        0.04770    0.20680    0.63840    1.000
    H90      H        0.06250    0.18450    0.66670    1.000
    Cu11     Cu       0.12914    0.26548    0.84410    1.000
    O51      O        0.20957    0.27923    0.89720    1.000
    O52      O        0.27557    0.39403    0.87525    1.000
    O53      O        0.29087    0.19943    0.08326    1.000
    O54      O        0.40667    0.25173    0.10222    1.000
    O55      O        0.50877    0.52613    0.88143    1.000
    N11      N        0.52087    0.45173    0.95193    1.000
    C161     C        0.26527    0.33873    0.90113    1.000
    C162     C        0.35387    0.24413    0.07283    1.000
    C163     C        0.31147    0.29033    0.98453    1.000
    H91      H        0.26567    0.25343    0.99113    1.000
    C164     C        0.32517    0.34173    0.93973    1.000
    C165     C        0.39377    0.39613    0.92923    1.000
    H92      H        0.40237    0.43113    0.90013    1.000
    C166     C        0.44967    0.39833    0.96223    1.000
    C167     C        0.43597    0.34743    0.00773    1.000
    H93      H        0.47297    0.34883    0.03033    1.000
    C168     C        0.36737    0.29483    0.01933    1.000
    C169     C        0.54477    0.50943    0.91253    1.000
    C170     C        0.57927    0.45133    0.98663    1.000
    H94      H        0.57567    0.45723    0.03123    1.000
    H95      H        0.58017    0.40793    0.97933    1.000
    C171     C        0.64327    0.51383    0.95913    1.000
    C172     C        0.62267    0.54653    0.91653    1.000
    C173     C        0.67107    0.60743    0.88603    1.000
    H96      H        0.65627    0.62993    0.85793    1.000
    C174     C        0.74097    0.63363    0.89793    1.000
    H97      H        0.77477    0.67403    0.87743    1.000
    C175     C        0.76177    0.59983    0.94103    1.000
    H98      H        0.80967    0.61873    0.94913    1.000
    C176     C        0.71437    0.54013    0.97173    1.000
    H99      H        0.72917    0.51783    0.00003    1.000
    Cu12     Cu       0.79580    0.59882    0.17744    1.000
    O56      O        0.87623    0.61257    0.23054    1.000
    O57      O        0.94223    0.72737    0.20859    1.000
    O58      O        0.95753    0.53277    0.41660    1.000
    O59      O        0.07333    0.58507    0.43556    1.000
    O60      O        0.17543    0.85947    0.21477    1.000
    N12      N        0.18753    0.78507    0.28527    1.000
    C177     C        0.93193    0.67207    0.23447    1.000
    C178     C        0.02053    0.57747    0.40617    1.000
    C179     C        0.97813    0.62367    0.31787    1.000
    H100     H        0.93233    0.58677    0.32447    1.000
    C180     C        0.99183    0.67507    0.27307    1.000
    C181     C        0.06043    0.72947    0.26257    1.000
    H101     H        0.06903    0.76447    0.23347    1.000
    C182     C        0.11633    0.73167    0.29557    1.000
    C183     C        0.10263    0.68077    0.34107    1.000
    H102     H        0.13963    0.68217    0.36367    1.000
    C184     C        0.03403    0.62817    0.35267    1.000
    C185     C        0.21143    0.84277    0.24587    1.000
    C186     C        0.24593    0.78467    0.31997    1.000
    H103     H        0.24233    0.79057    0.36457    1.000
    H104     H        0.24683    0.74127    0.31267    1.000
    C187     C        0.30993    0.84717    0.29247    1.000
    C188     C        0.28933    0.87987    0.24987    1.000
    C189     C        0.33773    0.94077    0.21937    1.000
    H105     H        0.32293    0.96327    0.19127    1.000
    C190     C        0.40763    0.96697    0.23127    1.000
    H106     H        0.44143    0.00737    0.21077    1.000
    C191     C        0.42843    0.93317    0.27437    1.000
    H107     H        0.47633    0.95207    0.28247    1.000
    C192     C        0.38103    0.87347    0.30507    1.000
    H108     H        0.39583    0.85117    0.33337    1.000
    Cu13     Cu       0.06785    0.53032    0.51077    1.000
    O61      O        0.05410    0.59700    0.56387    1.000
    O62      O        0.93930    0.54820    0.54192    1.000
    O63      O        0.13390    0.75810    0.74993    1.000
    O64      O        0.08160    0.82160    0.76889    1.000
    O65      O        0.80720    0.64930    0.54810    1.000
    N13      N        0.88160    0.73580    0.61860    1.000
    C193     C        0.99460    0.59320    0.56780    1.000
    C194     C        0.08920    0.77640    0.73950    1.000
    C195     C        0.04300    0.68780    0.65120    1.000
    H109     H        0.07990    0.67890    0.65780    1.000
    C196     C        0.99160    0.65010    0.60640    1.000
    C197     C        0.93720    0.66430    0.59590    1.000
    H110     H        0.90220    0.63790    0.56680    1.000
    C198     C        0.93500    0.71800    0.62890    1.000
    C199     C        0.98590    0.75520    0.67440    1.000
    H111     H        0.98450    0.79080    0.69700    1.000
    C200     C        0.03850    0.73920    0.68600    1.000
    C201     C        0.82390    0.70200    0.57920    1.000
    C202     C        0.88200    0.79460    0.65330    1.000
    H112     H        0.87610    0.78510    0.69790    1.000
    H113     H        0.92540    0.83890    0.64600    1.000
    C203     C        0.81950    0.79610    0.62580    1.000
    C204     C        0.78680    0.74280    0.58320    1.000
    C205     C        0.72590    0.73030    0.55270    1.000
    H114     H        0.70340    0.69300    0.52460    1.000
    C206     C        0.69970    0.77400    0.56460    1.000
    H115     H        0.65930    0.76740    0.54410    1.000
    C207     C        0.73350    0.82860    0.60770    1.000
    H116     H        0.71460    0.85760    0.61580    1.000
    C208     C        0.79320    0.84090    0.63840    1.000
    H117     H        0.81550    0.87800    0.66670    1.000
    Cu14     Cu       0.73452    0.86365    0.84410    1.000
    O66      O        0.72077    0.93033    0.89720    1.000
    O67      O        0.60597    0.88153    0.87525    1.000
    O68      O        0.80057    0.09143    0.08326    1.000
    O69      O        0.74827    0.15493    0.10222    1.000
    O70      O        0.47387    0.98263    0.88143    1.000
    N14      N        0.54827    0.06913    0.95193    1.000
    C209     C        0.66127    0.92653    0.90113    1.000
    C210     C        0.75587    0.10973    0.07283    1.000
    C211     C        0.70967    0.02113    0.98453    1.000
    H118     H        0.74657    0.01223    0.99113    1.000
    C212     C        0.65827    0.98343    0.93973    1.000
    C213     C        0.60387    0.99763    0.92923    1.000
    H119     H        0.56887    0.97123    0.90013    1.000
    C214     C        0.60167    0.05133    0.96223    1.000
    C215     C        0.65257    0.08853    0.00773    1.000
    H120     H        0.65117    0.12413    0.03033    1.000
    C216     C        0.70517    0.07253    0.01933    1.000
    C217     C        0.49057    0.03533    0.91253    1.000
    C218     C        0.54867    0.12793    0.98663    1.000
    H121     H        0.54277    0.11843    0.03123    1.000
    H122     H        0.59207    0.17223    0.97933    1.000
    C219     C        0.48617    0.12943    0.95913    1.000
    C220     C        0.45347    0.07613    0.91653    1.000
    C221     C        0.39257    0.06363    0.88603    1.000
    H123     H        0.37007    0.02633    0.85793    1.000
    C222     C        0.36637    0.10733    0.89793    1.000
    H124     H        0.32597    0.10073    0.87743    1.000
    C223     C        0.40017    0.16193    0.94103    1.000
    H125     H        0.38127    0.19093    0.94913    1.000
    C224     C        0.45987    0.17423    0.97173    1.000
    H126     H        0.48217    0.21133    0.00003    1.000
    Cu15     Cu       0.40118    0.19699    0.17744    1.000
    O71      O        0.38743    0.26367    0.23054    1.000
    O72      O        0.27263    0.21487    0.20859    1.000
    O73      O        0.46723    0.42477    0.41660    1.000
    O74      O        0.41493    0.48827    0.43556    1.000
    O75      O        0.14053    0.31597    0.21477    1.000
    N15      N        0.21493    0.40247    0.28527    1.000
    C225     C        0.32793    0.25987    0.23447    1.000
    C226     C        0.42253    0.44307    0.40617    1.000
    C227     C        0.37633    0.35447    0.31787    1.000
    H127     H        0.41323    0.34557    0.32447    1.000
    C228     C        0.32493    0.31677    0.27307    1.000
    C229     C        0.27053    0.33097    0.26257    1.000
    H128     H        0.23553    0.30457    0.23347    1.000
    C230     C        0.26833    0.38467    0.29557    1.000
    C231     C        0.31923    0.42187    0.34107    1.000
    H129     H        0.31783    0.45747    0.36367    1.000
    C232     C        0.37183    0.40587    0.35267    1.000
    C233     C        0.15723    0.36867    0.24587    1.000
    C234     C        0.21533    0.46127    0.31997    1.000
    H130     H        0.20943    0.45177    0.36457    1.000
    H131     H        0.25873    0.50557    0.31267    1.000
    C235     C        0.15283    0.46277    0.29247    1.000
    C236     C        0.12013    0.40947    0.24987    1.000
    C237     C        0.05923    0.39697    0.21937    1.000
    H132     H        0.03673    0.35967    0.19127    1.000
    C238     C        0.03303    0.44067    0.23127    1.000
    H133     H        0.99263    0.43407    0.21077    1.000
    C239     C        0.06683    0.49527    0.27437    1.000
    H134     H        0.04793    0.52427    0.28247    1.000
    C240     C        0.12653    0.50757    0.30507    1.000
    H135     H        0.14883    0.54467    0.33337    1.000
    Cu16     Cu       0.46968    0.53753    0.51077    1.000
    O76      O        0.40300    0.45710    0.56387    1.000
    O77      O        0.45180    0.39110    0.54192    1.000
    O78      O        0.24190    0.37580    0.74993    1.000
    O79      O        0.17840    0.26000    0.76889    1.000
    O80      O        0.35070    0.15790    0.54810    1.000
    N16      N        0.26420    0.14580    0.61860    1.000
    C241     C        0.40680    0.40140    0.56780    1.000
    C242     C        0.22360    0.31280    0.73950    1.000
    C243     C        0.31220    0.35520    0.65120    1.000
    H136     H        0.32110    0.40100    0.65780    1.000
    C244     C        0.34990    0.34150    0.60640    1.000
    C245     C        0.33570    0.27290    0.59590    1.000
    H137     H        0.36210    0.26430    0.56680    1.000
    C246     C        0.28200    0.21700    0.62890    1.000
    C247     C        0.24480    0.23070    0.67440    1.000
    H138     H        0.20920    0.19370    0.69700    1.000
    C248     C        0.26080    0.29930    0.68600    1.000
    C249     C        0.29800    0.12190    0.57920    1.000
    C250     C        0.20540    0.08740    0.65330    1.000
    H139     H        0.21490    0.09100    0.69790    1.000
    H140     H        0.16110    0.08650    0.64600    1.000
    C251     C        0.20390    0.02340    0.62580    1.000
    C252     C        0.25720    0.04400    0.58320    1.000
    C253     C        0.26970    0.99560    0.55270    1.000
    H141     H        0.30700    0.01040    0.52460    1.000
    C254     C        0.22600    0.92570    0.56460    1.000
    H142     H        0.23260    0.89190    0.54410    1.000
    C255     C        0.17140    0.90490    0.60770    1.000
    H143     H        0.14240    0.85700    0.61580    1.000
    C256     C        0.15910    0.95230    0.63840    1.000
    H144     H        0.12200    0.93750    0.66670    1.000
    Cu17     Cu       0.13635    0.87086    0.84410    1.000
    O81      O        0.06967    0.79043    0.89720    1.000
    O82      O        0.11847    0.72443    0.87525    1.000
    O83      O        0.90857    0.70913    0.08326    1.000
    O84      O        0.84507    0.59333    0.10222    1.000
    O85      O        0.01737    0.49123    0.88143    1.000
    N17      N        0.93087    0.47913    0.95193    1.000
    C257     C        0.07347    0.73473    0.90113    1.000
    C258     C        0.89027    0.64613    0.07283    1.000
    C259     C        0.97887    0.68853    0.98453    1.000
    H145     H        0.98777    0.73433    0.99113    1.000
    C260     C        0.01657    0.67483    0.93973    1.000
    C261     C        0.00237    0.60623    0.92923    1.000
    H146     H        0.02877    0.59763    0.90013    1.000
    C262     C        0.94867    0.55033    0.96223    1.000
    C263     C        0.91147    0.56403    0.00773    1.000
    H147     H        0.87587    0.52703    0.03033    1.000
    C264     C        0.92747    0.63263    0.01933    1.000
    C265     C        0.96467    0.45523    0.91253    1.000
    C266     C        0.87207    0.42073    0.98663    1.000
    H148     H        0.88157    0.42433    0.03123    1.000
    H149     H        0.82777    0.41983    0.97933    1.000
    C267     C        0.87057    0.35673    0.95913    1.000
    C268     C        0.92387    0.37733    0.91653    1.000
    C269     C        0.93637    0.32893    0.88603    1.000
    H150     H        0.97367    0.34373    0.85793    1.000
    C270     C        0.89267    0.25903    0.89793    1.000
    H151     H        0.89927    0.22523    0.87743    1.000
    C271     C        0.83807    0.23823    0.94103    1.000
    H152     H        0.80907    0.19033    0.94913    1.000
    C272     C        0.82577    0.28563    0.97173    1.000
    H153     H        0.78867    0.27083    0.00003    1.000
    Cu18     Cu       0.80301    0.20420    0.17744    1.000
    O86      O        0.73633    0.12377    0.23054    1.000
    O87      O        0.78513    0.05777    0.20859    1.000
    O88      O        0.57523    0.04247    0.41660    1.000
    O89      O        0.51173    0.92667    0.43556    1.000
    O90      O        0.68403    0.82457    0.21477    1.000
    N18      N        0.59753    0.81247    0.28527    1.000
    C273     C        0.74013    0.06807    0.23447    1.000
    C274     C        0.55693    0.97947    0.40617    1.000
    C275     C        0.64553    0.02187    0.31787    1.000
    H154     H        0.65443    0.06767    0.32447    1.000
    C276     C        0.68323    0.00817    0.27307    1.000
    C277     C        0.66903    0.93957    0.26257    1.000
    H155     H        0.69543    0.93097    0.23347    1.000
    C278     C        0.61533    0.88367    0.29557    1.000
    C279     C        0.57813    0.89737    0.34107    1.000
    H156     H        0.54253    0.86037    0.36367    1.000
    C280     C        0.59413    0.96597    0.35267    1.000
    C281     C        0.63133    0.78857    0.24587    1.000
    C282     C        0.53873    0.75407    0.31997    1.000
    H157     H        0.54823    0.75767    0.36457    1.000
    H158     H        0.49443    0.75317    0.31267    1.000
    C283     C        0.53723    0.69007    0.29247    1.000
    C284     C        0.59053    0.71067    0.24987    1.000
    C285     C        0.60303    0.66227    0.21937    1.000
    H159     H        0.64033    0.67707    0.19127    1.000
    C286     C        0.55933    0.59237    0.23127    1.000
    H160     H        0.56593    0.55857    0.21077    1.000
    C287     C        0.50473    0.57157    0.27437    1.000
    H161     H        0.47573    0.52367    0.28247    1.000
    C288     C        0.49243    0.61897    0.30507    1.000
    H162     H        0.45533    0.60417    0.33337    1.000
