# CIF file generated by openbabel 3.1.0, see https://openbabel.org
data_I
_chemical_name_common 'image0'
_cell_length_a 18.344
_cell_length_b 13.3034
_cell_length_c 7.4497
_cell_angle_alpha 90
_cell_angle_beta 90
_cell_angle_gamma 90
_space_group_name_H-M_alt 'P 1'
_space_group_name_Hall 'P 1'
loop_
    _symmetry_equiv_pos_as_xyz
    x,y,z
loop_
    _atom_site_label
    _atom_site_type_symbol
    _atom_site_fract_x
    _atom_site_fract_y
    _atom_site_fract_z
    _atom_site_occupancy
    Zn1      Zn       0.05650    0.87830    0.06080    1.000
    Zn2      Zn       0.96610    0.12840    0.49110    1.000
    P1       P        0.08540    0.04810    0.75160    1.000
    O1       O        0.08470    0.99570    0.93310    1.000
    O2       O        0.00920    0.10010    0.72940    1.000
    O3       O        0.14610    0.12490    0.74210    1.000
    O4       O        0.09580    0.97680    0.59290    1.000
    O5       O        0.03640    0.34490    0.30230    1.000
    O6       O        0.35670    0.15460    0.70350    1.000
    Zn3      Zn       0.44350    0.12170    0.56080    1.000
    Zn4      Zn       0.53390    0.87160    0.99110    1.000
    P2       P        0.41460    0.95190    0.25160    1.000
    O7       O        0.41530    0.00430    0.43310    1.000
    O8       O        0.49080    0.89990    0.22940    1.000
    O9       O        0.35390    0.87510    0.24210    1.000
    O10      O        0.40420    0.02320    0.09290    1.000
    O11      O        0.46360    0.65510    0.80230    1.000
    O12      O        0.14330    0.84540    0.20350    1.000
    Zn5      Zn       0.94350    0.37830    0.93920    1.000
    Zn6      Zn       0.03390    0.62840    0.50890    1.000
    P3       P        0.91460    0.54810    0.24840    1.000
    O13      O        0.91530    0.49570    0.06690    1.000
    O14      O        0.99080    0.60010    0.27060    1.000
    O15      O        0.85390    0.62490    0.25790    1.000
    O16      O        0.90420    0.47680    0.40710    1.000
    O17      O        0.96360    0.84490    0.69770    1.000
    O18      O        0.64330    0.65460    0.29650    1.000
    Zn7      Zn       0.55650    0.62170    0.43920    1.000
    Zn8      Zn       0.46610    0.37160    0.00890    1.000
    P4       P        0.58540    0.45190    0.74840    1.000
    O19      O        0.58470    0.50430    0.56690    1.000
    O20      O        0.50920    0.39990    0.77060    1.000
    O21      O        0.64610    0.37510    0.75790    1.000
    O22      O        0.59580    0.52320    0.90710    1.000
    O23      O        0.53640    0.15510    0.19770    1.000
    O24      O        0.85670    0.34540    0.79650    1.000
    Zn9      Zn       0.94350    0.12170    0.93920    1.000
    Zn10     Zn       0.03390    0.87160    0.50890    1.000
    P5       P        0.91460    0.95190    0.24840    1.000
    O25      O        0.91530    0.00430    0.06690    1.000
    O26      O        0.99080    0.89990    0.27060    1.000
    O27      O        0.85390    0.87510    0.25790    1.000
    O28      O        0.90420    0.02320    0.40710    1.000
    O29      O        0.96360    0.65510    0.69770    1.000
    O30      O        0.64330    0.84540    0.29650    1.000
    Zn11     Zn       0.55650    0.87830    0.43920    1.000
    Zn12     Zn       0.46610    0.12840    0.00890    1.000
    P6       P        0.58540    0.04810    0.74840    1.000
    O31      O        0.58470    0.99570    0.56690    1.000
    O32      O        0.50920    0.10010    0.77060    1.000
    O33      O        0.64610    0.12490    0.75790    1.000
    O34      O        0.59580    0.97680    0.90710    1.000
    O35      O        0.53640    0.34490    0.19770    1.000
    O36      O        0.85670    0.15460    0.79650    1.000
    Zn13     Zn       0.05650    0.62170    0.06080    1.000
    Zn14     Zn       0.96610    0.37160    0.49110    1.000
    P7       P        0.08540    0.45190    0.75160    1.000
    O37      O        0.08470    0.50430    0.93310    1.000
    O38      O        0.00920    0.39990    0.72940    1.000
    O39      O        0.14610    0.37510    0.74210    1.000
    O40      O        0.09580    0.52320    0.59290    1.000
    O41      O        0.03640    0.15510    0.30230    1.000
    O42      O        0.35670    0.34540    0.70350    1.000
    Zn15     Zn       0.44350    0.37830    0.56080    1.000
    Zn16     Zn       0.53390    0.62840    0.99110    1.000
    P8       P        0.41460    0.54810    0.25160    1.000
    O43      O        0.41530    0.49570    0.43310    1.000
    O44      O        0.49080    0.60010    0.22940    1.000
    O45      O        0.35390    0.62490    0.24210    1.000
    O46      O        0.40420    0.47680    0.09290    1.000
    O47      O        0.46360    0.84490    0.80230    1.000
    O48      O        0.14330    0.65460    0.20350    1.000
    Zn17     Zn       0.16690    0.25000    0.85990    1.000
    P9       P        0.04260    0.25000    0.18800    1.000
    P10      P        0.34540    0.25000    0.81520    1.000
    O49      O        0.97680    0.25000    0.05210    1.000
    O50      O        0.11390    0.25000    0.08830    1.000
    O51      O        0.40660    0.25000    0.96530    1.000
    O52      O        0.27120    0.25000    0.90400    1.000
    Zn18     Zn       0.33310    0.75000    0.35990    1.000
    P11      P        0.45740    0.75000    0.68800    1.000
    P12      P        0.15460    0.75000    0.31520    1.000
    O53      O        0.52320    0.75000    0.55210    1.000
    O54      O        0.38610    0.75000    0.58830    1.000
    O55      O        0.09340    0.75000    0.46530    1.000
    O56      O        0.22880    0.75000    0.40400    1.000
    Zn19     Zn       0.83310    0.75000    0.14010    1.000
    P13      P        0.95740    0.75000    0.81200    1.000
    P14      P        0.65460    0.75000    0.18480    1.000
    O57      O        0.02320    0.75000    0.94790    1.000
    O58      O        0.88610    0.75000    0.91170    1.000
    O59      O        0.59340    0.75000    0.03470    1.000
    O60      O        0.72880    0.75000    0.09600    1.000
    Zn20     Zn       0.66690    0.25000    0.64010    1.000
    P15      P        0.54260    0.25000    0.31200    1.000
    P16      P        0.84540    0.25000    0.68480    1.000
    O61      O        0.47680    0.25000    0.44790    1.000
    O62      O        0.61390    0.25000    0.41170    1.000
    O63      O        0.90660    0.25000    0.53470    1.000
    O64      O        0.77120    0.25000    0.59600    1.000
