# CIF file generated by openbabel 3.1.0, see https://openbabel.org
data_I
_chemical_name_common 'EXOZIB_clean'
_cell_length_a 11.709
_cell_length_b 12.626
_cell_length_c 13.1949
_cell_angle_alpha 103.482
_cell_angle_beta 116.34
_cell_angle_gamma 90
_space_group_name_H-M_alt 'P 1'
_space_group_name_Hall 'P 1'
loop_
    _symmetry_equiv_pos_as_xyz
    x,y,z
loop_
    _atom_site_label
    _atom_site_type_symbol
    _atom_site_fract_x
    _atom_site_fract_y
    _atom_site_fract_z
    _atom_site_occupancy
    Cu1      Cu       0.98647    0.09456    0.97294    1.000
    Cu2      Cu       0.01353    0.90544    0.02706    1.000
    Cu3      Cu       0.00000    0.50000    0.00000    1.000
    H1       H        0.93250    0.15690    0.73100    1.000
    H2       H        0.75350    0.30150    0.64100    1.000
    H3       H        0.82340    0.95620    0.24840    1.000
    H4       H        0.94580    0.02410    0.35820    1.000
    H5       H        0.91170    0.17640    0.28760    1.000
    H6       H        0.77590    0.12300    0.18780    1.000
    H7       H        0.20150    0.84310    0.26900    1.000
    H8       H        0.11250    0.69850    0.35900    1.000
    H9       H        0.57500    0.04380    0.75160    1.000
    H10      H        0.58760    0.97590    0.64180    1.000
    H11      H        0.62410    0.82360    0.71240    1.000
    H12      H        0.58810    0.87700    0.81220    1.000
    H13      H        0.06750    0.84310    0.26900    1.000
    H14      H        0.24650    0.69850    0.35900    1.000
    H15      H        0.17660    0.04380    0.75160    1.000
    H16      H        0.05420    0.97590    0.64180    1.000
    H17      H        0.08830    0.82360    0.71240    1.000
    H18      H        0.22410    0.87700    0.81220    1.000
    H19      H        0.79850    0.15690    0.73100    1.000
    H20      H        0.88750    0.30150    0.64100    1.000
    H21      H        0.42500    0.95620    0.24840    1.000
    H22      H        0.41240    0.02410    0.35820    1.000
    H23      H        0.37590    0.17640    0.28760    1.000
    H24      H        0.41190    0.12300    0.18780    1.000
    C1       C        0.84069    0.13640    0.47218    1.000
    C2       C        0.85910    0.02870    0.30100    1.000
    C3       C        0.86280    0.10790    0.23260    1.000
    C4       C        0.92008    0.06950    0.14996    1.000
    C5       C        0.36851    0.86360    0.52782    1.000
    C6       C        0.55810    0.97130    0.69900    1.000
    C7       C        0.63020    0.89210    0.76740    1.000
    C8       C        0.77012    0.93050    0.85004    1.000
    C9       C        0.15931    0.86360    0.52782    1.000
    C10      C        0.14090    0.97130    0.69900    1.000
    C11      C        0.13720    0.89210    0.76740    1.000
    C12      C        0.07992    0.93050    0.85004    1.000
    C13      C        0.63149    0.13640    0.47218    1.000
    C14      C        0.44190    0.02870    0.30100    1.000
    C15      C        0.36980    0.10790    0.23260    1.000
    C16      C        0.22988    0.06950    0.14996    1.000
    C17      C        0.92700    0.28670    0.85400    1.000
    C18      C        0.86830    0.20330    0.73660    1.000
    C19      C        0.81810    0.25540    0.63620    1.000
    C20      C        0.65140    0.02910    0.30280    1.000
    C21      C        0.07300    0.71330    0.14600    1.000
    C22      C        0.13170    0.79670    0.26340    1.000
    C23      C        0.18190    0.74460    0.36380    1.000
    C24      C        0.34860    0.97090    0.69720    1.000
    N1       N        0.78083    0.06480    0.36166    1.000
    N2       N        0.41917    0.93520    0.63834    1.000
    N3       N        0.21917    0.93520    0.63834    1.000
    N4       N        0.58083    0.06480    0.36166    1.000
    N5       N        0.76150    0.17120    0.52300    1.000
    N6       N        0.23850    0.82880    0.47700    1.000
    O1       O        0.95071    0.97420    0.14022    1.000
    O2       O        0.92967    0.13340    0.09554    1.000
    O3       O        0.95364    0.16620    0.52028    1.000
    O4       O        0.81049    0.02580    0.85978    1.000
    O5       O        0.83413    0.86660    0.90446    1.000
    O6       O        0.43336    0.83380    0.47972    1.000
    O7       O        0.04929    0.02580    0.85978    1.000
    O8       O        0.07033    0.86660    0.90446    1.000
    O9       O        0.04636    0.83380    0.47972    1.000
    O10      O        0.18951    0.97420    0.14022    1.000
    O11      O        0.16587    0.13340    0.09554    1.000
    O12      O        0.56664    0.16620    0.52028    1.000
    O13      O        0.97289    0.25260    0.94578    1.000
    O14      O        0.92820    0.38560    0.85640    1.000
    O15      O        0.60230    0.97240    0.20460    1.000
    O16      O        0.02711    0.74740    0.05422    1.000
    O17      O        0.07180    0.61440    0.14360    1.000
    O18      O        0.39770    0.02760    0.79540    1.000
