# CIF file generated by openbabel 3.1.0, see https://openbabel.org
data_I
_chemical_name_common 'image0'
_cell_length_a 23.6965
_cell_length_b 23.6965
_cell_length_c 13.5437
_cell_angle_alpha 90
_cell_angle_beta 90
_cell_angle_gamma 120
_space_group_name_H-M_alt 'P 1'
_space_group_name_Hall 'P 1'
loop_
    _symmetry_equiv_pos_as_xyz
    x,y,z
loop_
    _atom_site_label
    _atom_site_type_symbol
    _atom_site_fract_x
    _atom_site_fract_y
    _atom_site_fract_z
    _atom_site_occupancy
    Fe1      Fe       0.36123    0.09308    0.11893    1.000
    Ga1      Ga       0.34990    0.24363    0.91668    1.000
    P1       P        0.41936    0.23695    0.12064    1.000
    P2       P        0.32701    0.98661    0.27598    1.000
    O1       O        0.36890    0.21180    0.03800    1.000
    O2       O        0.42340    0.17680    0.15680    1.000
    O3       O        0.39160    0.25980    0.20710    1.000
    O4       O        0.48470    0.29080    0.09140    1.000
    O5       O        0.37620    0.04500    0.21270    1.000
    O6       O        0.36610    0.95710    0.32280    1.000
    O7       O        0.27160    0.93610    0.21560    1.000
    O8       O        0.30030    0.00970    0.35930    1.000
    N1       N        0.44440    0.27770    0.86940    1.000
    N2       N        0.33350    0.15680    0.85270    1.000
    N3       N        0.25140    0.18880    0.94260    1.000
    C1       C        0.44830    0.22050    0.82800    1.000
    C2       C        0.38520    0.17440    0.77950    1.000
    C3       C        0.26610    0.12360    0.81860    1.000
    C4       C        0.22470    0.12080    0.90490    1.000
    H1       H        0.47620    0.29130    0.92040    1.000
    H2       H        0.45760    0.31240    0.82500    1.000
    H3       H        0.22470    0.20600    0.90940    1.000
    H4       H        0.24870    0.18300    0.01420    1.000
    H5       H        0.45120    0.19710    0.89350    1.000
    H6       H        0.38890    0.13120    0.76340    1.000
    H7       H        0.37990    0.20900    0.72430    1.000
    H8       H        0.26420    0.14860    0.75130    1.000
    H9       H        0.24240    0.07560    0.78960    1.000
    H10      H        0.17460    0.09780    0.87880    1.000
    H11      H        0.22290    0.09420    0.97320    1.000
    Ga2      Ga       0.30544    0.24025    0.21440    1.000
    Fe2      Fe       0.02790    0.42641    0.45226    1.000
    Ga3      Ga       0.01657    0.57696    0.25001    1.000
    P3       P        0.08603    0.57028    0.45397    1.000
    P4       P        0.99368    0.31994    0.60931    1.000
    O9       O        0.03557    0.54513    0.37133    1.000
    O10      O        0.09007    0.51013    0.49013    1.000
    O11      O        0.05827    0.59313    0.54043    1.000
    O12      O        0.15137    0.62413    0.42473    1.000
    O13      O        0.04287    0.37833    0.54603    1.000
    O14      O        0.03277    0.29043    0.65613    1.000
    O15      O        0.93827    0.26943    0.54893    1.000
    O16      O        0.96697    0.34303    0.69263    1.000
    N4       N        0.11107    0.61103    0.20273    1.000
    N5       N        0.00017    0.49013    0.18603    1.000
    N6       N        0.91807    0.52213    0.27593    1.000
    C5       C        0.11497    0.55383    0.16133    1.000
    C6       C        0.05187    0.50773    0.11283    1.000
    C7       C        0.93277    0.45693    0.15193    1.000
    C8       C        0.89137    0.45413    0.23823    1.000
    H12      H        0.14287    0.62463    0.25373    1.000
    H13      H        0.12427    0.64573    0.15833    1.000
    H14      H        0.89137    0.53933    0.24273    1.000
    H15      H        0.91537    0.51633    0.34753    1.000
    H16      H        0.11787    0.53043    0.22683    1.000
    H17      H        0.05557    0.46453    0.09673    1.000
    H18      H        0.04657    0.54233    0.05763    1.000
    H19      H        0.93087    0.48193    0.08463    1.000
    H20      H        0.90907    0.40893    0.12293    1.000
    H21      H        0.84127    0.43113    0.21213    1.000
    H22      H        0.88957    0.42753    0.30653    1.000
    Ga4      Ga       0.97210    0.57359    0.54774    1.000
    Fe3      Fe       0.69456    0.75975    0.78560    1.000
    Ga5      Ga       0.68323    0.91030    0.58335    1.000
    P5       P        0.75269    0.90362    0.78731    1.000
    P6       P        0.66034    0.65328    0.94265    1.000
    O17      O        0.70223    0.87847    0.70467    1.000
    O18      O        0.75673    0.84347    0.82347    1.000
    O19      O        0.72493    0.92647    0.87377    1.000
    O20      O        0.81803    0.95747    0.75807    1.000
    O21      O        0.70953    0.71167    0.87937    1.000
    O22      O        0.69943    0.62377    0.98947    1.000
    O23      O        0.60493    0.60277    0.88227    1.000
    O24      O        0.63363    0.67637    0.02597    1.000
    N7       N        0.77773    0.94437    0.53607    1.000
    N8       N        0.66683    0.82347    0.51937    1.000
    N9       N        0.58473    0.85547    0.60927    1.000
    C9       C        0.78163    0.88717    0.49467    1.000
    C10      C        0.71853    0.84107    0.44617    1.000
    C11      C        0.59943    0.79027    0.48527    1.000
    C12      C        0.55803    0.78747    0.57157    1.000
    H23      H        0.80953    0.95797    0.58707    1.000
    H24      H        0.79093    0.97907    0.49167    1.000
    H25      H        0.55803    0.87267    0.57607    1.000
    H26      H        0.58203    0.84967    0.68087    1.000
    H27      H        0.78453    0.86377    0.56017    1.000
    H28      H        0.72223    0.79787    0.43007    1.000
    H29      H        0.71323    0.87567    0.39097    1.000
    H30      H        0.59753    0.81527    0.41797    1.000
    H31      H        0.57573    0.74227    0.45627    1.000
    H32      H        0.50793    0.76447    0.54547    1.000
    H33      H        0.55623    0.76087    0.63987    1.000
    Ga6      Ga       0.63877    0.90692    0.88107    1.000
    Fe4      Fe       0.90692    0.26815    0.11893    1.000
    Ga7      Ga       0.75637    0.10627    0.91668    1.000
    P7       P        0.76305    0.18241    0.12064    1.000
    P8       P        0.01339    0.34040    0.27598    1.000
    O25      O        0.78820    0.15710    0.03800    1.000
    O26      O        0.82320    0.24660    0.15680    1.000
    O27      O        0.74020    0.13180    0.20710    1.000
    O28      O        0.70920    0.19390    0.09140    1.000
    O29      O        0.95500    0.33120    0.21270    1.000
    O30      O        0.04290    0.40900    0.32280    1.000
    O31      O        0.06390    0.33550    0.21560    1.000
    O32      O        0.99030    0.29060    0.35930    1.000
    N10      N        0.72230    0.16670    0.86940    1.000
    N11      N        0.84320    0.17670    0.85270    1.000
    N12      N        0.81120    0.06260    0.94260    1.000
    C13      C        0.77950    0.22780    0.82800    1.000
    C14      C        0.82560    0.21080    0.77950    1.000
    C15      C        0.87640    0.14250    0.81860    1.000
    C16      C        0.87920    0.10390    0.90490    1.000
    H34      H        0.70870    0.18490    0.92040    1.000
    H35      H        0.68760    0.14520    0.82500    1.000
    H36      H        0.79400    0.01870    0.90940    1.000
    H37      H        0.81700    0.06570    0.01420    1.000
    H38      H        0.80290    0.25410    0.89350    1.000
    H39      H        0.86880    0.25770    0.76340    1.000
    H40      H        0.79100    0.17090    0.72430    1.000
    H41      H        0.85140    0.11560    0.75130    1.000
    H42      H        0.92440    0.16680    0.78960    1.000
    H43      H        0.90220    0.07680    0.87880    1.000
    H44      H        0.90580    0.12870    0.97320    1.000
    Ga8      Ga       0.75975    0.06518    0.21440    1.000
    Fe5      Fe       0.57359    0.60148    0.45226    1.000
    Ga9      Ga       0.42304    0.43960    0.25001    1.000
    P9       P        0.42972    0.51574    0.45397    1.000
    P10      P        0.68006    0.67373    0.60931    1.000
    O33      O        0.45487    0.49043    0.37133    1.000
    O34      O        0.48987    0.57993    0.49013    1.000
    O35      O        0.40687    0.46513    0.54043    1.000
    O36      O        0.37587    0.52723    0.42473    1.000
    O37      O        0.62167    0.66453    0.54603    1.000
    O38      O        0.70957    0.74233    0.65613    1.000
    O39      O        0.73057    0.66883    0.54893    1.000
    O40      O        0.65697    0.62393    0.69263    1.000
    N13      N        0.38897    0.50003    0.20273    1.000
    N14      N        0.50987    0.51003    0.18603    1.000
    N15      N        0.47787    0.39593    0.27593    1.000
    C17      C        0.44617    0.56113    0.16133    1.000
    C18      C        0.49227    0.54413    0.11283    1.000
    C19      C        0.54307    0.47583    0.15193    1.000
    C20      C        0.54587    0.43723    0.23823    1.000
    H45      H        0.37537    0.51823    0.25373    1.000
    H46      H        0.35427    0.47853    0.15833    1.000
    H47      H        0.46067    0.35203    0.24273    1.000
    H48      H        0.48367    0.39903    0.34753    1.000
    H49      H        0.46957    0.58743    0.22683    1.000
    H50      H        0.53547    0.59103    0.09673    1.000
    H51      H        0.45767    0.50423    0.05763    1.000
    H52      H        0.51807    0.44893    0.08463    1.000
    H53      H        0.59107    0.50013    0.12293    1.000
    H54      H        0.56887    0.41013    0.21213    1.000
    H55      H        0.57247    0.46203    0.30653    1.000
    Ga10     Ga       0.42641    0.39852    0.54774    1.000
    Fe6      Fe       0.24025    0.93482    0.78560    1.000
    Ga11     Ga       0.08970    0.77294    0.58335    1.000
    P11      P        0.09638    0.84908    0.78731    1.000
    P12      P        0.34672    0.00707    0.94265    1.000
    O41      O        0.12153    0.82377    0.70467    1.000
    O42      O        0.15653    0.91327    0.82347    1.000
    O43      O        0.07353    0.79847    0.87377    1.000
    O44      O        0.04253    0.86057    0.75807    1.000
    O45      O        0.28833    0.99787    0.87937    1.000
    O46      O        0.37623    0.07567    0.98947    1.000
    O47      O        0.39723    0.00217    0.88227    1.000
    O48      O        0.32363    0.95727    0.02597    1.000
    N16      N        0.05563    0.83337    0.53607    1.000
    N17      N        0.17653    0.84337    0.51937    1.000
    N18      N        0.14453    0.72927    0.60927    1.000
    C21      C        0.11283    0.89447    0.49467    1.000
    C22      C        0.15893    0.87747    0.44617    1.000
    C23      C        0.20973    0.80917    0.48527    1.000
    C24      C        0.21253    0.77057    0.57157    1.000
    H56      H        0.04203    0.85157    0.58707    1.000
    H57      H        0.02093    0.81187    0.49167    1.000
    H58      H        0.12733    0.68537    0.57607    1.000
    H59      H        0.15033    0.73237    0.68087    1.000
    H60      H        0.13623    0.92077    0.56017    1.000
    H61      H        0.20213    0.92437    0.43007    1.000
    H62      H        0.12433    0.83757    0.39097    1.000
    H63      H        0.18473    0.78227    0.41797    1.000
    H64      H        0.25773    0.83347    0.45627    1.000
    H65      H        0.23553    0.74347    0.54547    1.000
    H66      H        0.23913    0.79537    0.63987    1.000
    Ga12     Ga       0.09308    0.73185    0.88107    1.000
    Fe7      Fe       0.73185    0.63877    0.11893    1.000
    Ga13     Ga       0.89373    0.65010    0.91668    1.000
    P13      P        0.81759    0.58064    0.12064    1.000
    P14      P        0.65960    0.67299    0.27598    1.000
    O49      O        0.84290    0.63110    0.03800    1.000
    O50      O        0.75340    0.57660    0.15680    1.000
    O51      O        0.86820    0.60840    0.20710    1.000
    O52      O        0.80610    0.51530    0.09140    1.000
    O53      O        0.66880    0.62380    0.21270    1.000
    O54      O        0.59100    0.63390    0.32280    1.000
    O55      O        0.66450    0.72840    0.21560    1.000
    O56      O        0.70940    0.69970    0.35930    1.000
    N19      N        0.83330    0.55560    0.86940    1.000
    N20      N        0.82330    0.66650    0.85270    1.000
    N21      N        0.93740    0.74860    0.94260    1.000
    C25      C        0.77220    0.55170    0.82800    1.000
    C26      C        0.78920    0.61480    0.77950    1.000
    C27      C        0.85750    0.73390    0.81860    1.000
    C28      C        0.89610    0.77530    0.90490    1.000
    H67      H        0.81510    0.52380    0.92040    1.000
    H68      H        0.85480    0.54240    0.82500    1.000
    H69      H        0.98130    0.77530    0.90940    1.000
    H70      H        0.93430    0.75130    0.01420    1.000
    H71      H        0.74590    0.54880    0.89350    1.000
    H72      H        0.74230    0.61110    0.76340    1.000
    H73      H        0.82910    0.62010    0.72430    1.000
    H74      H        0.88440    0.73580    0.75130    1.000
    H75      H        0.83320    0.75760    0.78960    1.000
    H76      H        0.92320    0.82540    0.87880    1.000
    H77      H        0.87130    0.77710    0.97320    1.000
    Ga14     Ga       0.93482    0.69456    0.21440    1.000
    Fe8      Fe       0.39852    0.97210    0.45226    1.000
    Ga15     Ga       0.56040    0.98343    0.25001    1.000
    P15      P        0.48426    0.91397    0.45397    1.000
    P16      P        0.32627    0.00632    0.60931    1.000
    O57      O        0.50957    0.96443    0.37133    1.000
    O58      O        0.42007    0.90993    0.49013    1.000
    O59      O        0.53487    0.94173    0.54043    1.000
    O60      O        0.47277    0.84863    0.42473    1.000
    O61      O        0.33547    0.95713    0.54603    1.000
    O62      O        0.25767    0.96723    0.65613    1.000
    O63      O        0.33117    0.06173    0.54893    1.000
    O64      O        0.37607    0.03303    0.69263    1.000
    N22      N        0.49997    0.88893    0.20273    1.000
    N23      N        0.48997    0.99983    0.18603    1.000
    N24      N        0.60407    0.08193    0.27593    1.000
    C29      C        0.43887    0.88503    0.16133    1.000
    C30      C        0.45587    0.94813    0.11283    1.000
    C31      C        0.52417    0.06723    0.15193    1.000
    C32      C        0.56277    0.10863    0.23823    1.000
    H78      H        0.48177    0.85713    0.25373    1.000
    H79      H        0.52147    0.87573    0.15833    1.000
    H80      H        0.64797    0.10863    0.24273    1.000
    H81      H        0.60097    0.08463    0.34753    1.000
    H82      H        0.41257    0.88213    0.22683    1.000
    H83      H        0.40897    0.94443    0.09673    1.000
    H84      H        0.49577    0.95343    0.05763    1.000
    H85      H        0.55107    0.06913    0.08463    1.000
    H86      H        0.49987    0.09093    0.12293    1.000
    H87      H        0.58987    0.15873    0.21213    1.000
    H88      H        0.53797    0.11043    0.30653    1.000
    Ga16     Ga       0.60148    0.02790    0.54774    1.000
    Fe9      Fe       0.06518    0.30544    0.78560    1.000
    Ga17     Ga       0.22706    0.31677    0.58335    1.000
    P17      P        0.15092    0.24731    0.78731    1.000
    P18      P        0.99293    0.33966    0.94265    1.000
    O65      O        0.17623    0.29777    0.70467    1.000
    O66      O        0.08673    0.24327    0.82347    1.000
    O67      O        0.20153    0.27507    0.87377    1.000
    O68      O        0.13943    0.18197    0.75807    1.000
    O69      O        0.00213    0.29047    0.87937    1.000
    O70      O        0.92433    0.30057    0.98947    1.000
    O71      O        0.99783    0.39507    0.88227    1.000
    O72      O        0.04273    0.36637    0.02597    1.000
    N25      N        0.16663    0.22227    0.53607    1.000
    N26      N        0.15663    0.33317    0.51937    1.000
    N27      N        0.27073    0.41527    0.60927    1.000
    C33      C        0.10553    0.21837    0.49467    1.000
    C34      C        0.12253    0.28147    0.44617    1.000
    C35      C        0.19083    0.40057    0.48527    1.000
    C36      C        0.22943    0.44197    0.57157    1.000
    H89      H        0.14843    0.19047    0.58707    1.000
    H90      H        0.18813    0.20907    0.49167    1.000
    H91      H        0.31463    0.44197    0.57607    1.000
    H92      H        0.26763    0.41797    0.68087    1.000
    H93      H        0.07923    0.21547    0.56017    1.000
    H94      H        0.07563    0.27777    0.43007    1.000
    H95      H        0.16243    0.28677    0.39097    1.000
    H96      H        0.21773    0.40247    0.41797    1.000
    H97      H        0.16653    0.42427    0.45627    1.000
    H98      H        0.25653    0.49207    0.54547    1.000
    H99      H        0.20463    0.44377    0.63987    1.000
    Ga18     Ga       0.26815    0.36123    0.88107    1.000
    Ga19     Ga       0.65010    0.75637    0.08332    1.000
    P19      P        0.58064    0.76305    0.87936    1.000
    P20      P        0.67299    0.01339    0.72402    1.000
    O73      O        0.63110    0.78820    0.96200    1.000
    O74      O        0.57660    0.82320    0.84320    1.000
    O75      O        0.60840    0.74020    0.79290    1.000
    O76      O        0.51530    0.70920    0.90860    1.000
    O77      O        0.62380    0.95500    0.78730    1.000
    O78      O        0.63390    0.04290    0.67720    1.000
    O79      O        0.72840    0.06390    0.78440    1.000
    O80      O        0.69970    0.99030    0.64070    1.000
    N28      N        0.55560    0.72230    0.13060    1.000
    N29      N        0.66650    0.84320    0.14730    1.000
    N30      N        0.74860    0.81120    0.05740    1.000
    C37      C        0.55170    0.77950    0.17200    1.000
    C38      C        0.61480    0.82560    0.22050    1.000
    C39      C        0.73390    0.87640    0.18140    1.000
    C40      C        0.77530    0.87920    0.09510    1.000
    H100     H        0.52380    0.70870    0.07960    1.000
    H101     H        0.54240    0.68760    0.17500    1.000
    H102     H        0.77530    0.79400    0.09060    1.000
    H103     H        0.75130    0.81700    0.98580    1.000
    H104     H        0.54880    0.80290    0.10650    1.000
    H105     H        0.61110    0.86880    0.23660    1.000
    H106     H        0.62010    0.79100    0.27570    1.000
    H107     H        0.73580    0.85140    0.24870    1.000
    H108     H        0.75760    0.92440    0.21040    1.000
    H109     H        0.82540    0.90220    0.12120    1.000
    H110     H        0.77710    0.90580    0.02680    1.000
    Ga20     Ga       0.31677    0.08970    0.41665    1.000
    P21      P        0.24731    0.09638    0.21269    1.000
    P22      P        0.33966    0.34672    0.05735    1.000
    O81      O        0.29777    0.12153    0.29533    1.000
    O82      O        0.24327    0.15653    0.17653    1.000
    O83      O        0.27507    0.07353    0.12623    1.000
    O84      O        0.18197    0.04253    0.24193    1.000
    O85      O        0.29047    0.28833    0.12063    1.000
    O86      O        0.30057    0.37623    0.01053    1.000
    O87      O        0.39507    0.39723    0.11773    1.000
    O88      O        0.36637    0.32363    0.97403    1.000
    N31      N        0.22227    0.05563    0.46393    1.000
    N32      N        0.33317    0.17653    0.48063    1.000
    N33      N        0.41527    0.14453    0.39073    1.000
    C41      C        0.21837    0.11283    0.50533    1.000
    C42      C        0.28147    0.15893    0.55383    1.000
    C43      C        0.40057    0.20973    0.51473    1.000
    C44      C        0.44197    0.21253    0.42843    1.000
    H111     H        0.19047    0.04203    0.41293    1.000
    H112     H        0.20907    0.02093    0.50833    1.000
    H113     H        0.44197    0.12733    0.42393    1.000
    H114     H        0.41797    0.15033    0.31913    1.000
    H115     H        0.21547    0.13623    0.43983    1.000
    H116     H        0.27777    0.20213    0.56993    1.000
    H117     H        0.28677    0.12433    0.60903    1.000
    H118     H        0.40247    0.18473    0.58203    1.000
    H119     H        0.42427    0.25773    0.54373    1.000
    H120     H        0.49207    0.23553    0.45453    1.000
    H121     H        0.44377    0.23913    0.36013    1.000
    Ga21     Ga       0.98343    0.42304    0.74999    1.000
    P23      P        0.91397    0.42972    0.54603    1.000
    P24      P        0.00632    0.68006    0.39069    1.000
    O89      O        0.96443    0.45487    0.62867    1.000
    O90      O        0.90993    0.48987    0.50987    1.000
    O91      O        0.94173    0.40687    0.45957    1.000
    O92      O        0.84863    0.37587    0.57527    1.000
    O93      O        0.95713    0.62167    0.45397    1.000
    O94      O        0.96723    0.70957    0.34387    1.000
    O95      O        0.06173    0.73057    0.45107    1.000
    O96      O        0.03303    0.65697    0.30737    1.000
    N34      N        0.88893    0.38897    0.79727    1.000
    N35      N        0.99983    0.50987    0.81397    1.000
    N36      N        0.08193    0.47787    0.72407    1.000
    C45      C        0.88503    0.44617    0.83867    1.000
    C46      C        0.94813    0.49227    0.88717    1.000
    C47      C        0.06723    0.54307    0.84807    1.000
    C48      C        0.10863    0.54587    0.76177    1.000
    H122     H        0.85713    0.37537    0.74627    1.000
    H123     H        0.87573    0.35427    0.84167    1.000
    H124     H        0.10863    0.46067    0.75727    1.000
    H125     H        0.08463    0.48367    0.65247    1.000
    H126     H        0.88213    0.46957    0.77317    1.000
    H127     H        0.94443    0.53547    0.90327    1.000
    H128     H        0.95343    0.45767    0.94237    1.000
    H129     H        0.06913    0.51807    0.91537    1.000
    H130     H        0.09093    0.59107    0.87707    1.000
    H131     H        0.15873    0.56887    0.78787    1.000
    H132     H        0.11043    0.57247    0.69347    1.000
    Ga22     Ga       0.24363    0.89373    0.08332    1.000
    P25      P        0.23695    0.81759    0.87936    1.000
    P26      P        0.98661    0.65960    0.72402    1.000
    O97      O        0.21180    0.84290    0.96200    1.000
    O98      O        0.17680    0.75340    0.84320    1.000
    O99      O        0.25980    0.86820    0.79290    1.000
    O100     O        0.29080    0.80610    0.90860    1.000
    O101     O        0.04500    0.66880    0.78730    1.000
    O102     O        0.95710    0.59100    0.67720    1.000
    O103     O        0.93610    0.66450    0.78440    1.000
    O104     O        0.00970    0.70940    0.64070    1.000
    N37      N        0.27770    0.83330    0.13060    1.000
    N38      N        0.15680    0.82330    0.14730    1.000
    N39      N        0.18880    0.93740    0.05740    1.000
    C49      C        0.22050    0.77220    0.17200    1.000
    C50      C        0.17440    0.78920    0.22050    1.000
    C51      C        0.12360    0.85750    0.18140    1.000
    C52      C        0.12080    0.89610    0.09510    1.000
    H133     H        0.29130    0.81510    0.07960    1.000
    H134     H        0.31240    0.85480    0.17500    1.000
    H135     H        0.20600    0.98130    0.09060    1.000
    H136     H        0.18300    0.93430    0.98580    1.000
    H137     H        0.19710    0.74590    0.10650    1.000
    H138     H        0.13120    0.74230    0.23660    1.000
    H139     H        0.20900    0.82910    0.27570    1.000
    H140     H        0.14860    0.88440    0.24870    1.000
    H141     H        0.07560    0.83320    0.21040    1.000
    H142     H        0.09780    0.92320    0.12120    1.000
    H143     H        0.09420    0.87130    0.02680    1.000
    Ga23     Ga       0.91030    0.22706    0.41665    1.000
    P27      P        0.90362    0.15092    0.21269    1.000
    P28      P        0.65328    0.99293    0.05735    1.000
    O105     O        0.87847    0.17623    0.29533    1.000
    O106     O        0.84347    0.08673    0.17653    1.000
    O107     O        0.92647    0.20153    0.12623    1.000
    O108     O        0.95747    0.13943    0.24193    1.000
    O109     O        0.71167    0.00213    0.12063    1.000
    O110     O        0.62377    0.92433    0.01053    1.000
    O111     O        0.60277    0.99783    0.11773    1.000
    O112     O        0.67637    0.04273    0.97403    1.000
    N40      N        0.94437    0.16663    0.46393    1.000
    N41      N        0.82347    0.15663    0.48063    1.000
    N42      N        0.85547    0.27073    0.39073    1.000
    C53      C        0.88717    0.10553    0.50533    1.000
    C54      C        0.84107    0.12253    0.55383    1.000
    C55      C        0.79027    0.19083    0.51473    1.000
    C56      C        0.78747    0.22943    0.42843    1.000
    H144     H        0.95797    0.14843    0.41293    1.000
    H145     H        0.97907    0.18813    0.50833    1.000
    H146     H        0.87267    0.31463    0.42393    1.000
    H147     H        0.84967    0.26763    0.31913    1.000
    H148     H        0.86377    0.07923    0.43983    1.000
    H149     H        0.79787    0.07563    0.56993    1.000
    H150     H        0.87567    0.16243    0.60903    1.000
    H151     H        0.81527    0.21773    0.58203    1.000
    H152     H        0.74227    0.16653    0.54373    1.000
    H153     H        0.76447    0.25653    0.45453    1.000
    H154     H        0.76087    0.20463    0.36013    1.000
    Ga24     Ga       0.57696    0.56040    0.74999    1.000
    P29      P        0.57028    0.48426    0.54603    1.000
    P30      P        0.31994    0.32627    0.39069    1.000
    O113     O        0.54513    0.50957    0.62867    1.000
    O114     O        0.51013    0.42007    0.50987    1.000
    O115     O        0.59313    0.53487    0.45957    1.000
    O116     O        0.62413    0.47277    0.57527    1.000
    O117     O        0.37833    0.33547    0.45397    1.000
    O118     O        0.29043    0.25767    0.34387    1.000
    O119     O        0.26943    0.33117    0.45107    1.000
    O120     O        0.34303    0.37607    0.30737    1.000
    N43      N        0.61103    0.49997    0.79727    1.000
    N44      N        0.49013    0.48997    0.81397    1.000
    N45      N        0.52213    0.60407    0.72407    1.000
    C57      C        0.55383    0.43887    0.83867    1.000
    C58      C        0.50773    0.45587    0.88717    1.000
    C59      C        0.45693    0.52417    0.84807    1.000
    C60      C        0.45413    0.56277    0.76177    1.000
    H155     H        0.62463    0.48177    0.74627    1.000
    H156     H        0.64573    0.52147    0.84167    1.000
    H157     H        0.53933    0.64797    0.75727    1.000
    H158     H        0.51633    0.60097    0.65247    1.000
    H159     H        0.53043    0.41257    0.77317    1.000
    H160     H        0.46453    0.40897    0.90327    1.000
    H161     H        0.54233    0.49577    0.94237    1.000
    H162     H        0.48193    0.55107    0.91537    1.000
    H163     H        0.40893    0.49987    0.87707    1.000
    H164     H        0.43113    0.58987    0.78787    1.000
    H165     H        0.42753    0.53797    0.69347    1.000
    Ga25     Ga       0.10627    0.34990    0.08332    1.000
    P31      P        0.18241    0.41936    0.87936    1.000
    P32      P        0.34040    0.32701    0.72402    1.000
    O121     O        0.15710    0.36890    0.96200    1.000
    O122     O        0.24660    0.42340    0.84320    1.000
    O123     O        0.13180    0.39160    0.79290    1.000
    O124     O        0.19390    0.48470    0.90860    1.000
    O125     O        0.33120    0.37620    0.78730    1.000
    O126     O        0.40900    0.36610    0.67720    1.000
    O127     O        0.33550    0.27160    0.78440    1.000
    O128     O        0.29060    0.30030    0.64070    1.000
    N46      N        0.16670    0.44440    0.13060    1.000
    N47      N        0.17670    0.33350    0.14730    1.000
    N48      N        0.06260    0.25140    0.05740    1.000
    C61      C        0.22780    0.44830    0.17200    1.000
    C62      C        0.21080    0.38520    0.22050    1.000
    C63      C        0.14250    0.26610    0.18140    1.000
    C64      C        0.10390    0.22470    0.09510    1.000
    H166     H        0.18490    0.47620    0.07960    1.000
    H167     H        0.14520    0.45760    0.17500    1.000
    H168     H        0.01870    0.22470    0.09060    1.000
    H169     H        0.06570    0.24870    0.98580    1.000
    H170     H        0.25410    0.45120    0.10650    1.000
    H171     H        0.25770    0.38890    0.23660    1.000
    H172     H        0.17090    0.37990    0.27570    1.000
    H173     H        0.11560    0.26420    0.24870    1.000
    H174     H        0.16680    0.24240    0.21040    1.000
    H175     H        0.07680    0.17460    0.12120    1.000
    H176     H        0.12870    0.22290    0.02680    1.000
    Ga26     Ga       0.77294    0.68323    0.41665    1.000
    P33      P        0.84908    0.75269    0.21269    1.000
    P34      P        0.00707    0.66034    0.05735    1.000
    O129     O        0.82377    0.70223    0.29533    1.000
    O130     O        0.91327    0.75673    0.17653    1.000
    O131     O        0.79847    0.72493    0.12623    1.000
    O132     O        0.86057    0.81803    0.24193    1.000
    O133     O        0.99787    0.70953    0.12063    1.000
    O134     O        0.07567    0.69943    0.01053    1.000
    O135     O        0.00217    0.60493    0.11773    1.000
    O136     O        0.95727    0.63363    0.97403    1.000
    N49      N        0.83337    0.77773    0.46393    1.000
    N50      N        0.84337    0.66683    0.48063    1.000
    N51      N        0.72927    0.58473    0.39073    1.000
    C65      C        0.89447    0.78163    0.50533    1.000
    C66      C        0.87747    0.71853    0.55383    1.000
    C67      C        0.80917    0.59943    0.51473    1.000
    C68      C        0.77057    0.55803    0.42843    1.000
    H177     H        0.85157    0.80953    0.41293    1.000
    H178     H        0.81187    0.79093    0.50833    1.000
    H179     H        0.68537    0.55803    0.42393    1.000
    H180     H        0.73237    0.58203    0.31913    1.000
    H181     H        0.92077    0.78453    0.43983    1.000
    H182     H        0.92437    0.72223    0.56993    1.000
    H183     H        0.83757    0.71323    0.60903    1.000
    H184     H        0.78227    0.59753    0.58203    1.000
    H185     H        0.83347    0.57573    0.54373    1.000
    H186     H        0.74347    0.50793    0.45453    1.000
    H187     H        0.79537    0.55623    0.36013    1.000
    Ga27     Ga       0.43960    0.01657    0.74999    1.000
    P35      P        0.51574    0.08603    0.54603    1.000
    P36      P        0.67373    0.99368    0.39069    1.000
    O137     O        0.49043    0.03557    0.62867    1.000
    O138     O        0.57993    0.09007    0.50987    1.000
    O139     O        0.46513    0.05827    0.45957    1.000
    O140     O        0.52723    0.15137    0.57527    1.000
    O141     O        0.66453    0.04287    0.45397    1.000
    O142     O        0.74233    0.03277    0.34387    1.000
    O143     O        0.66883    0.93827    0.45107    1.000
    O144     O        0.62393    0.96697    0.30737    1.000
    N52      N        0.50003    0.11107    0.79727    1.000
    N53      N        0.51003    0.00017    0.81397    1.000
    N54      N        0.39593    0.91807    0.72407    1.000
    C69      C        0.56113    0.11497    0.83867    1.000
    C70      C        0.54413    0.05187    0.88717    1.000
    C71      C        0.47583    0.93277    0.84807    1.000
    C72      C        0.43723    0.89137    0.76177    1.000
    H188     H        0.51823    0.14287    0.74627    1.000
    H189     H        0.47853    0.12427    0.84167    1.000
    H190     H        0.35203    0.89137    0.75727    1.000
    H191     H        0.39903    0.91537    0.65247    1.000
    H192     H        0.58743    0.11787    0.77317    1.000
    H193     H        0.59103    0.05557    0.90327    1.000
    H194     H        0.50423    0.04657    0.94237    1.000
    H195     H        0.44893    0.93087    0.91537    1.000
    H196     H        0.50013    0.90907    0.87707    1.000
    H197     H        0.41013    0.84127    0.78787    1.000
    H198     H        0.46203    0.88957    0.69347    1.000
