# CIF file generated by openbabel 3.1.0, see https://openbabel.org
data_I
_chemical_name_common 'image0'
_cell_length_a 6.9473
_cell_length_b 21.9479
_cell_length_c 23.1867
_cell_angle_alpha 90
_cell_angle_beta 90
_cell_angle_gamma 90
_space_group_name_H-M_alt 'P 1'
_space_group_name_Hall 'P 1'
loop_
    _symmetry_equiv_pos_as_xyz
    x,y,z
loop_
    _atom_site_label
    _atom_site_type_symbol
    _atom_site_fract_x
    _atom_site_fract_y
    _atom_site_fract_z
    _atom_site_occupancy
    Nd1      Nd       0.57770    0.23194    0.05004    1.000
    O1       O        0.59180    0.30994    0.64948    1.000
    O2       O        0.56660    0.21100    0.64111    1.000
    C1       C        0.57890    0.25760    0.67230    1.000
    C2       C        0.57690    0.25110    0.73730    1.000
    C3       C        0.57350    0.19350    0.76080    1.000
    H1       H        0.57150    0.15920    0.73730    1.000
    C4       C        0.57320    0.18780    0.81980    1.000
    N1       N        0.52550    0.12600    0.84440    1.000
    O3       O        0.56190    0.11710    0.89480    1.000
    O4       O        0.45660    0.08570    0.81390    1.000
    C5       C        0.57600    0.23670    0.85700    1.000
    C6       C        0.57910    0.29560    0.83210    1.000
    H2       H        0.58050    0.33010    0.85530    1.000
    C7       C        0.57990    0.30130    0.77190    1.000
    H3       H        0.58260    0.33980    0.75530    1.000
    C8       C        0.57430    0.23350    0.92071    1.000
    O5       O        0.41550    0.22670    0.94669    1.000
    O6       O        0.72570    0.24156    0.94754    1.000
    O7       O        0.29380    0.35226    0.96260    1.000
    O8       O        0.54690    0.33601    0.02047    1.000
    C9       C        0.42930    0.36990    0.99340    1.000
    C10      C        0.46370    0.43740    0.99790    1.000
    C11      C        0.57070    0.46250    0.04170    1.000
    H4       H        0.62100    0.43740    0.07070    1.000
    C12      C        0.39340    0.47530    0.95590    1.000
    H5       H        0.32130    0.45930    0.92570    1.000
    N2       N        0.63020    0.12620    0.84320    1.000
    O9       O        0.65520    0.12070    0.89510    1.000
    O10      O        0.63110    0.08230    0.81020    1.000
    N3       N        0.62000    0.42950    0.09910    1.000
    O11      O        0.50100    0.41940    0.13330    1.000
    O12      O        0.78300    0.41890    0.10350    1.000
    Nd2      Nd       0.92230    0.76806    0.55004    1.000
    O13      O        0.90820    0.69006    0.14948    1.000
    O14      O        0.93340    0.78900    0.14111    1.000
    C13      C        0.92110    0.74240    0.17230    1.000
    C14      C        0.92310    0.74890    0.23730    1.000
    C15      C        0.92650    0.80650    0.26080    1.000
    H6       H        0.92850    0.84080    0.23730    1.000
    C16      C        0.92680    0.81220    0.31980    1.000
    N4       N        0.97450    0.87400    0.34440    1.000
    O15      O        0.93810    0.88290    0.39480    1.000
    O16      O        0.04340    0.91430    0.31390    1.000
    C17      C        0.92400    0.76330    0.35700    1.000
    C18      C        0.92090    0.70440    0.33210    1.000
    H7       H        0.91950    0.66990    0.35530    1.000
    C19      C        0.92010    0.69870    0.27190    1.000
    H8       H        0.91740    0.66020    0.25530    1.000
    C20      C        0.92570    0.76650    0.42071    1.000
    O17      O        0.08450    0.77330    0.44669    1.000
    O18      O        0.77430    0.75844    0.44754    1.000
    O19      O        0.20620    0.64774    0.46260    1.000
    O20      O        0.95310    0.66399    0.52047    1.000
    C21      C        0.07070    0.63010    0.49340    1.000
    C22      C        0.03630    0.56260    0.49790    1.000
    C23      C        0.92930    0.53750    0.54170    1.000
    H9       H        0.87900    0.56260    0.57070    1.000
    C24      C        0.10660    0.52470    0.45590    1.000
    H10      H        0.17870    0.54070    0.42570    1.000
    N5       N        0.86980    0.87380    0.34320    1.000
    O21      O        0.84480    0.87930    0.39510    1.000
    O22      O        0.86890    0.91770    0.31020    1.000
    N6       N        0.88000    0.57050    0.59910    1.000
    O23      O        0.99900    0.58060    0.63330    1.000
    O24      O        0.71700    0.58110    0.60350    1.000
    Nd3      Nd       0.42230    0.73194    0.44996    1.000
    O25      O        0.40820    0.80994    0.85052    1.000
    O26      O        0.43340    0.71100    0.85889    1.000
    C25      C        0.42110    0.75760    0.82770    1.000
    C26      C        0.42310    0.75110    0.76270    1.000
    C27      C        0.42650    0.69350    0.73920    1.000
    H11      H        0.42850    0.65920    0.76270    1.000
    C28      C        0.42680    0.68780    0.68020    1.000
    N7       N        0.47450    0.62600    0.65560    1.000
    O27      O        0.43810    0.61710    0.60520    1.000
    O28      O        0.54340    0.58570    0.68610    1.000
    C29      C        0.42400    0.73670    0.64300    1.000
    C30      C        0.42090    0.79560    0.66790    1.000
    H12      H        0.41950    0.83010    0.64470    1.000
    C31      C        0.42010    0.80130    0.72810    1.000
    H13      H        0.41740    0.83980    0.74470    1.000
    C32      C        0.42570    0.73350    0.57929    1.000
    O29      O        0.58450    0.72670    0.55331    1.000
    O30      O        0.27430    0.74156    0.55246    1.000
    O31      O        0.70620    0.85226    0.53740    1.000
    O32      O        0.45310    0.83601    0.47953    1.000
    C33      C        0.57070    0.86990    0.50660    1.000
    C34      C        0.53630    0.93740    0.50210    1.000
    C35      C        0.42930    0.96250    0.45830    1.000
    H14      H        0.37900    0.93740    0.42930    1.000
    C36      C        0.60660    0.97530    0.54410    1.000
    H15      H        0.67870    0.95930    0.57430    1.000
    N8       N        0.36980    0.62620    0.65680    1.000
    O33      O        0.34480    0.62070    0.60490    1.000
    O34      O        0.36890    0.58230    0.68980    1.000
    N9       N        0.38000    0.92950    0.40090    1.000
    O35      O        0.49900    0.91940    0.36670    1.000
    O36      O        0.21700    0.91890    0.39650    1.000
    Nd4      Nd       0.07770    0.26806    0.94996    1.000
    O37      O        0.09180    0.19006    0.35052    1.000
    O38      O        0.06660    0.28900    0.35889    1.000
    C37      C        0.07890    0.24240    0.32770    1.000
    C38      C        0.07690    0.24890    0.26270    1.000
    C39      C        0.07350    0.30650    0.23920    1.000
    H16      H        0.07150    0.34080    0.26270    1.000
    C40      C        0.07320    0.31220    0.18020    1.000
    N10      N        0.02550    0.37400    0.15560    1.000
    O39      O        0.06190    0.38290    0.10520    1.000
    O40      O        0.95660    0.41430    0.18610    1.000
    C41      C        0.07600    0.26330    0.14300    1.000
    C42      C        0.07910    0.20440    0.16790    1.000
    H17      H        0.08050    0.16990    0.14470    1.000
    C43      C        0.07990    0.19870    0.22810    1.000
    H18      H        0.08260    0.16020    0.24470    1.000
    C44      C        0.07430    0.26650    0.07929    1.000
    O41      O        0.91550    0.27330    0.05331    1.000
    O42      O        0.22570    0.25844    0.05246    1.000
    O43      O        0.79380    0.14774    0.03740    1.000
    O44      O        0.04690    0.16399    0.97953    1.000
    C45      C        0.92930    0.13010    0.00660    1.000
    C46      C        0.96370    0.06260    0.00210    1.000
    C47      C        0.07070    0.03750    0.95830    1.000
    H19      H        0.12100    0.06260    0.92930    1.000
    C48      C        0.89340    0.02470    0.04410    1.000
    H20      H        0.82130    0.04070    0.07430    1.000
    N11      N        0.13020    0.37380    0.15680    1.000
    O45      O        0.15520    0.37930    0.10490    1.000
    O46      O        0.13110    0.41770    0.18980    1.000
    N12      N        0.12000    0.07050    0.90090    1.000
    O47      O        0.00100    0.08060    0.86670    1.000
    O48      O        0.28300    0.08110    0.89650    1.000
    Nd5      Nd       0.42230    0.76806    0.94996    1.000
    O49      O        0.40820    0.69006    0.35052    1.000
    O50      O        0.43340    0.78900    0.35889    1.000
    C49      C        0.42110    0.74240    0.32770    1.000
    C50      C        0.42310    0.74890    0.26270    1.000
    C51      C        0.42650    0.80650    0.23920    1.000
    H21      H        0.42850    0.84080    0.26270    1.000
    C52      C        0.42680    0.81220    0.18020    1.000
    N13      N        0.47450    0.87400    0.15560    1.000
    O51      O        0.43810    0.88290    0.10520    1.000
    O52      O        0.54340    0.91430    0.18610    1.000
    C53      C        0.42400    0.76330    0.14300    1.000
    C54      C        0.42090    0.70440    0.16790    1.000
    H22      H        0.41950    0.66990    0.14470    1.000
    C55      C        0.42010    0.69870    0.22810    1.000
    H23      H        0.41740    0.66020    0.24470    1.000
    C56      C        0.42570    0.76650    0.07929    1.000
    O53      O        0.58450    0.77330    0.05331    1.000
    O54      O        0.27430    0.75844    0.05246    1.000
    O55      O        0.70620    0.64774    0.03740    1.000
    O56      O        0.45310    0.66399    0.97953    1.000
    C57      C        0.57070    0.63010    0.00660    1.000
    C58      C        0.53630    0.56260    0.00210    1.000
    C59      C        0.42930    0.53750    0.95830    1.000
    H24      H        0.37900    0.56260    0.92930    1.000
    C60      C        0.60660    0.52470    0.04410    1.000
    H25      H        0.67870    0.54070    0.07430    1.000
    N14      N        0.36980    0.87380    0.15680    1.000
    O57      O        0.34480    0.87930    0.10490    1.000
    O58      O        0.36890    0.91770    0.18980    1.000
    N15      N        0.38000    0.57050    0.90090    1.000
    O59      O        0.49900    0.58060    0.86670    1.000
    O60      O        0.21700    0.58110    0.89650    1.000
    Nd6      Nd       0.07770    0.23194    0.44996    1.000
    O61      O        0.09180    0.30994    0.85052    1.000
    O62      O        0.06660    0.21100    0.85889    1.000
    C61      C        0.07890    0.25760    0.82770    1.000
    C62      C        0.07690    0.25110    0.76270    1.000
    C63      C        0.07350    0.19350    0.73920    1.000
    H26      H        0.07150    0.15920    0.76270    1.000
    C64      C        0.07320    0.18780    0.68020    1.000
    N16      N        0.02550    0.12600    0.65560    1.000
    O63      O        0.06190    0.11710    0.60520    1.000
    O64      O        0.95660    0.08570    0.68610    1.000
    C65      C        0.07600    0.23670    0.64300    1.000
    C66      C        0.07910    0.29560    0.66790    1.000
    H27      H        0.08050    0.33010    0.64470    1.000
    C67      C        0.07990    0.30130    0.72810    1.000
    H28      H        0.08260    0.33980    0.74470    1.000
    C68      C        0.07430    0.23350    0.57929    1.000
    O65      O        0.91550    0.22670    0.55331    1.000
    O66      O        0.22570    0.24156    0.55246    1.000
    O67      O        0.79380    0.35226    0.53740    1.000
    O68      O        0.04690    0.33601    0.47953    1.000
    C69      C        0.92930    0.36990    0.50660    1.000
    C70      C        0.96370    0.43740    0.50210    1.000
    C71      C        0.07070    0.46250    0.45830    1.000
    H29      H        0.12100    0.43740    0.42930    1.000
    C72      C        0.89340    0.47530    0.54410    1.000
    H30      H        0.82130    0.45930    0.57430    1.000
    N17      N        0.13020    0.12620    0.65680    1.000
    O69      O        0.15520    0.12070    0.60490    1.000
    O70      O        0.13110    0.08230    0.68980    1.000
    N18      N        0.12000    0.42950    0.40090    1.000
    O71      O        0.00100    0.41940    0.36670    1.000
    O72      O        0.28300    0.41890    0.39650    1.000
    Nd7      Nd       0.57770    0.26806    0.55004    1.000
    O73      O        0.59180    0.19006    0.14948    1.000
    O74      O        0.56660    0.28900    0.14111    1.000
    C73      C        0.57890    0.24240    0.17230    1.000
    C74      C        0.57690    0.24890    0.23730    1.000
    C75      C        0.57350    0.30650    0.26080    1.000
    H31      H        0.57150    0.34080    0.23730    1.000
    C76      C        0.57320    0.31220    0.31980    1.000
    N19      N        0.52550    0.37400    0.34440    1.000
    O75      O        0.56190    0.38290    0.39480    1.000
    O76      O        0.45660    0.41430    0.31390    1.000
    C77      C        0.57600    0.26330    0.35700    1.000
    C78      C        0.57910    0.20440    0.33210    1.000
    H32      H        0.58050    0.16990    0.35530    1.000
    C79      C        0.57990    0.19870    0.27190    1.000
    H33      H        0.58260    0.16020    0.25530    1.000
    C80      C        0.57430    0.26650    0.42071    1.000
    O77      O        0.41550    0.27330    0.44669    1.000
    O78      O        0.72570    0.25844    0.44754    1.000
    O79      O        0.29380    0.14774    0.46260    1.000
    O80      O        0.54690    0.16399    0.52047    1.000
    C81      C        0.42930    0.13010    0.49340    1.000
    C82      C        0.46370    0.06260    0.49790    1.000
    C83      C        0.57070    0.03750    0.54170    1.000
    H34      H        0.62100    0.06260    0.57070    1.000
    C84      C        0.39340    0.02470    0.45590    1.000
    H35      H        0.32130    0.04070    0.42570    1.000
    N20      N        0.63020    0.37380    0.34320    1.000
    O81      O        0.65520    0.37930    0.39510    1.000
    O82      O        0.63110    0.41770    0.31020    1.000
    N21      N        0.62000    0.07050    0.59910    1.000
    O83      O        0.50100    0.08060    0.63330    1.000
    O84      O        0.78300    0.08110    0.60350    1.000
    Nd8      Nd       0.92230    0.73194    0.05004    1.000
    O85      O        0.90820    0.80994    0.64948    1.000
    O86      O        0.93340    0.71100    0.64111    1.000
    C85      C        0.92110    0.75760    0.67230    1.000
    C86      C        0.92310    0.75110    0.73730    1.000
    C87      C        0.92650    0.69350    0.76080    1.000
    H36      H        0.92850    0.65920    0.73730    1.000
    C88      C        0.92680    0.68780    0.81980    1.000
    N22      N        0.97450    0.62600    0.84440    1.000
    O87      O        0.93810    0.61710    0.89480    1.000
    O88      O        0.04340    0.58570    0.81390    1.000
    C89      C        0.92400    0.73670    0.85700    1.000
    C90      C        0.92090    0.79560    0.83210    1.000
    H37      H        0.91950    0.83010    0.85530    1.000
    C91      C        0.92010    0.80130    0.77190    1.000
    H38      H        0.91740    0.83980    0.75530    1.000
    C92      C        0.92570    0.73350    0.92071    1.000
    O89      O        0.08450    0.72670    0.94669    1.000
    O90      O        0.77430    0.74156    0.94754    1.000
    O91      O        0.20620    0.85226    0.96260    1.000
    O92      O        0.95310    0.83601    0.02047    1.000
    C93      C        0.07070    0.86990    0.99340    1.000
    C94      C        0.03630    0.93740    0.99790    1.000
    C95      C        0.92930    0.96250    0.04170    1.000
    H39      H        0.87900    0.93740    0.07070    1.000
    C96      C        0.10660    0.97530    0.95590    1.000
    H40      H        0.17870    0.95930    0.92570    1.000
    N23      N        0.86980    0.62620    0.84320    1.000
    O93      O        0.84480    0.62070    0.89510    1.000
    O94      O        0.86890    0.58230    0.81020    1.000
    N24      N        0.88000    0.92950    0.09910    1.000
    O95      O        0.99900    0.91940    0.13330    1.000
    O96      O        0.71700    0.91890    0.10350    1.000
