# CIF file generated by openbabel 3.1.0, see https://openbabel.org
data_I
_chemical_name_common 'XIHSAJ_clean'
_cell_length_a 11.6636
_cell_length_b 11.6636
_cell_length_c 20.63
_cell_angle_alpha 95.4501
_cell_angle_beta 95.4501
_cell_angle_gamma 104.599
_space_group_name_H-M_alt 'P 1'
_space_group_name_Hall 'P 1'
loop_
    _symmetry_equiv_pos_as_xyz
    x,y,z
loop_
    _atom_site_label
    _atom_site_type_symbol
    _atom_site_fract_x
    _atom_site_fract_y
    _atom_site_fract_z
    _atom_site_occupancy
    Co1      Co       0.02763    0.53615    0.31331    1.000
    Co2      Co       0.46385    0.97237    0.18669    1.000
    Co3      Co       0.97237    0.46385    0.68669    1.000
    Co4      Co       0.53615    0.02763    0.81331    1.000
    Co5      Co       0.25153    0.74847    0.25000    1.000
    Co6      Co       0.74847    0.25153    0.75000    1.000
    H1       H        0.90340    0.80420    0.41730    1.000
    H2       H        0.22030    0.13350    0.50060    1.000
    H3       H        0.23840    0.00320    0.41440    1.000
    H4       H        0.52180    0.61580    0.35360    1.000
    H5       H        0.66470    0.57030    0.42180    1.000
    H6       H        0.27440    0.49980    0.47210    1.000
    H7       H        0.46200    0.19440    0.39020    1.000
    H8       H        0.49460    0.22420    0.50260    1.000
    H9       H        0.46280    0.85100    0.39060    1.000
    H10      H        0.19580    0.09660    0.08270    1.000
    H11      H        0.86650    0.77970    0.99940    1.000
    H12      H        0.99680    0.76160    0.08560    1.000
    H13      H        0.38420    0.47820    0.14640    1.000
    H14      H        0.42970    0.33530    0.07820    1.000
    H15      H        0.50020    0.72560    0.02790    1.000
    H16      H        0.80560    0.53800    0.10980    1.000
    H17      H        0.77580    0.50540    0.99740    1.000
    H18      H        0.14900    0.53720    0.10940    1.000
    H19      H        0.09660    0.19580    0.58270    1.000
    H20      H        0.77970    0.86650    0.49940    1.000
    H21      H        0.76160    0.99680    0.58560    1.000
    H22      H        0.47820    0.38420    0.64640    1.000
    H23      H        0.33530    0.42970    0.57820    1.000
    H24      H        0.72560    0.50020    0.52790    1.000
    H25      H        0.53800    0.80560    0.60980    1.000
    H26      H        0.50540    0.77580    0.49740    1.000
    H27      H        0.53720    0.14900    0.60940    1.000
    H28      H        0.80420    0.90340    0.91730    1.000
    H29      H        0.13350    0.22030    0.00060    1.000
    H30      H        0.00320    0.23840    0.91440    1.000
    H31      H        0.61580    0.52180    0.85360    1.000
    H32      H        0.57030    0.66470    0.92180    1.000
    H33      H        0.49980    0.27440    0.97210    1.000
    H34      H        0.19440    0.46200    0.89020    1.000
    H35      H        0.22420    0.49460    0.00260    1.000
    H36      H        0.85100    0.46280    0.89060    1.000
    C1       C        0.08830    0.79950    0.35370    1.000
    C2       C        0.07160    0.88920    0.40730    1.000
    C3       C        0.96610    0.87010    0.43410    1.000
    C4       C        0.15640    0.06820    0.48430    1.000
    C5       C        0.16720    0.99000    0.43290    1.000
    C6       C        0.95130    0.94950    0.48700    1.000
    C7       C        0.28830    0.59410    0.36040    1.000
    C8       C        0.38200    0.56360    0.40660    1.000
    C9       C        0.50170    0.58390    0.39190    1.000
    C10      C        0.58740    0.55740    0.43270    1.000
    C11      C        0.55910    0.50990    0.49230    1.000
    C12      C        0.35300    0.51580    0.46290    1.000
    C13      C        0.44590    0.00170    0.30650    1.000
    C14      C        0.45980    0.01760    0.37960    1.000
    C15      C        0.46960    0.13160    0.41350    1.000
    C16      C        0.49010    0.14950    0.48060    1.000
    C17      C        0.47110    0.92590    0.41330    1.000
    C18      C        0.50450    0.05730    0.51650    1.000
    C19      C        0.20050    0.91170    0.14630    1.000
    C20      C        0.11080    0.92840    0.09270    1.000
    C21      C        0.12990    0.03390    0.06590    1.000
    C22      C        0.93180    0.84360    0.01570    1.000
    C23      C        0.01000    0.83280    0.06710    1.000
    C24      C        0.05050    0.04870    0.01300    1.000
    C25      C        0.40590    0.71170    0.13960    1.000
    C26      C        0.43640    0.61800    0.09340    1.000
    C27      C        0.41610    0.49830    0.10810    1.000
    C28      C        0.44260    0.41260    0.06730    1.000
    C29      C        0.49010    0.44090    0.00770    1.000
    C30      C        0.48420    0.64700    0.03710    1.000
    C31      C        0.99830    0.55410    0.19350    1.000
    C32      C        0.98240    0.54020    0.12040    1.000
    C33      C        0.86840    0.53040    0.08650    1.000
    C34      C        0.85050    0.50990    0.01940    1.000
    C35      C        0.07410    0.52890    0.08670    1.000
    C36      C        0.94270    0.49550    0.98350    1.000
    C37      C        0.91170    0.20050    0.64630    1.000
    C38      C        0.92840    0.11080    0.59270    1.000
    C39      C        0.03390    0.12990    0.56590    1.000
    C40      C        0.84360    0.93180    0.51570    1.000
    C41      C        0.83280    0.01000    0.56710    1.000
    C42      C        0.04870    0.05050    0.51300    1.000
    C43      C        0.71170    0.40590    0.63960    1.000
    C44      C        0.61800    0.43640    0.59340    1.000
    C45      C        0.49830    0.41610    0.60810    1.000
    C46      C        0.41260    0.44260    0.56730    1.000
    C47      C        0.44090    0.49010    0.50770    1.000
    C48      C        0.64700    0.48420    0.53710    1.000
    C49      C        0.55410    0.99830    0.69350    1.000
    C50      C        0.54020    0.98240    0.62040    1.000
    C51      C        0.53040    0.86840    0.58650    1.000
    C52      C        0.50990    0.85050    0.51940    1.000
    C53      C        0.52890    0.07410    0.58670    1.000
    C54      C        0.49550    0.94270    0.48350    1.000
    C55      C        0.79950    0.08830    0.85370    1.000
    C56      C        0.88920    0.07160    0.90730    1.000
    C57      C        0.87010    0.96610    0.93410    1.000
    C58      C        0.06820    0.15640    0.98430    1.000
    C59      C        0.99000    0.16720    0.93290    1.000
    C60      C        0.94950    0.95130    0.98700    1.000
    C61      C        0.59410    0.28830    0.86040    1.000
    C62      C        0.56360    0.38200    0.90660    1.000
    C63      C        0.58390    0.50170    0.89190    1.000
    C64      C        0.55740    0.58740    0.93270    1.000
    C65      C        0.50990    0.55910    0.99230    1.000
    C66      C        0.51580    0.35300    0.96290    1.000
    C67      C        0.00170    0.44590    0.80650    1.000
    C68      C        0.01760    0.45980    0.87960    1.000
    C69      C        0.13160    0.46960    0.91350    1.000
    C70      C        0.14950    0.49010    0.98060    1.000
    C71      C        0.92590    0.47110    0.91330    1.000
    C72      C        0.05730    0.50450    0.01650    1.000
    O1       O        0.17720    0.83080    0.32250    1.000
    O2       O        0.01160    0.70060    0.34500    1.000
    O3       O        0.32480    0.65660    0.31740    1.000
    O4       O        0.18210    0.55450    0.37100    1.000
    O5       O        0.41000    0.89700    0.27465    1.000
    O6       O        0.47980    0.09140    0.27670    1.000
    O7       O        0.16920    0.82280    0.17750    1.000
    O8       O        0.29940    0.98840    0.15500    1.000
    O9       O        0.34340    0.67520    0.18260    1.000
    O10      O        0.44550    0.81790    0.12900    1.000
    O11      O        0.10300    0.59000    0.22535    1.000
    O12      O        0.90860    0.52020    0.22330    1.000
    O13      O        0.82280    0.16920    0.67750    1.000
    O14      O        0.98840    0.29940    0.65500    1.000
    O15      O        0.67520    0.34340    0.68260    1.000
    O16      O        0.81790    0.44550    0.62900    1.000
    O17      O        0.59000    0.10300    0.72535    1.000
    O18      O        0.52020    0.90860    0.72330    1.000
    O19      O        0.83080    0.17720    0.82250    1.000
    O20      O        0.70060    0.01160    0.84500    1.000
    O21      O        0.65660    0.32480    0.81740    1.000
    O22      O        0.55450    0.18210    0.87100    1.000
    O23      O        0.89700    0.41000    0.77465    1.000
    O24      O        0.09140    0.47980    0.77670    1.000
