# CIF file generated by openbabel 3.1.0, see https://openbabel.org
data_I
_chemical_name_common 'SESDEA01_clean'
_cell_length_a 8.8853
_cell_length_b 12.0782
_cell_length_c 16.5903
_cell_angle_alpha 90
_cell_angle_beta 90
_cell_angle_gamma 109.33
_space_group_name_H-M_alt 'P 1'
_space_group_name_Hall 'P 1'
loop_
    _symmetry_equiv_pos_as_xyz
    x,y,z
loop_
    _atom_site_label
    _atom_site_type_symbol
    _atom_site_fract_x
    _atom_site_fract_y
    _atom_site_fract_z
    _atom_site_occupancy
    Eu1      Eu       0.56684    0.54759    0.38247    1.000
    Eu2      Eu       0.43316    0.45240    0.61753    1.000
    Eu3      Eu       0.06684    0.54759    0.11753    1.000
    Eu4      Eu       0.93316    0.45240    0.88247    1.000
    H1       H        0.40350    0.84690    0.30610    1.000
    H2       H        0.01200    0.16560    0.07390    1.000
    H3       H        0.48800    0.83440    0.57390    1.000
    H4       H        0.37920    0.36150    0.00900    1.000
    H5       H        0.67220    0.67940    0.16770    1.000
    H6       H        0.75250    0.70490    0.92890    1.000
    H7       H        0.32240    0.14150    0.59950    1.000
    H8       H        0.47080    0.78080    0.93310    1.000
    H9       H        0.59650    0.15310    0.69390    1.000
    H10      H        0.70330    0.00460    0.58740    1.000
    H11      H        0.62800    0.96520    0.93360    1.000
    H12      H        0.25250    0.70490    0.57110    1.000
    H13      H        0.37200    0.03480    0.06640    1.000
    H14      H        0.32780    0.32060    0.83230    1.000
    H15      H        0.41070    0.22470    0.82240    1.000
    H16      H        0.82780    0.32060    0.66770    1.000
    H17      H        0.90440    0.97430    0.77460    1.000
    H18      H        0.17760    0.85850    0.09950    1.000
    H19      H        0.87200    0.03480    0.43360    1.000
    H20      H        0.91070    0.22470    0.67760    1.000
    H21      H        0.62040    0.13800    0.03320    1.000
    H22      H        0.09560    0.02570    0.22540    1.000
    H23      H        0.12800    0.96520    0.56640    1.000
    H24      H        0.17220    0.67940    0.33230    1.000
    H25      H        0.79670    0.99540    0.08740    1.000
    H26      H        0.52920    0.21920    0.06690    1.000
    H27      H        0.74750    0.29510    0.42890    1.000
    H28      H        0.37960    0.86200    0.96680    1.000
    H29      H        0.29670    0.99540    0.41260    1.000
    H30      H        0.12080    0.63850    0.50900    1.000
    H31      H        0.59560    0.02570    0.27460    1.000
    H32      H        0.97080    0.78080    0.56690    1.000
    H33      H        0.58930    0.77530    0.17760    1.000
    H34      H        0.98800    0.83440    0.92610    1.000
    H35      H        0.62080    0.63850    0.99100    1.000
    H36      H        0.87960    0.86200    0.53320    1.000
    H37      H        0.51200    0.16560    0.42610    1.000
    H38      H        0.67760    0.85850    0.40050    1.000
    H39      H        0.20330    0.00460    0.91260    1.000
    H40      H        0.09650    0.15310    0.80610    1.000
    H41      H        0.87920    0.36150    0.49100    1.000
    H42      H        0.24750    0.29510    0.07110    1.000
    H43      H        0.12040    0.13800    0.46680    1.000
    H44      H        0.90350    0.84690    0.19390    1.000
    H45      H        0.02920    0.21920    0.43310    1.000
    H46      H        0.08930    0.77530    0.32240    1.000
    H47      H        0.40440    0.97430    0.72540    1.000
    H48      H        0.82240    0.14150    0.90050    1.000
    C1       C        0.27500    0.83510    0.20446    1.000
    C2       C        0.62470    0.19790    0.07293    1.000
    C3       C        0.49600    0.95350    0.83318    1.000
    C4       C        0.13050    0.10250    0.99138    1.000
    C5       C        0.12130    0.00290    0.94791    1.000
    C6       C        0.40080    0.29580    0.79925    1.000
    C7       C        0.73050    0.69530    0.55653    1.000
    C8       C        0.00770    0.09940    0.04411    1.000
    C9       C        0.15760    0.35930    0.97584    1.000
    C10      C        0.09920    0.70420    0.29925    1.000
    C11      C        0.23050    0.69530    0.94347    1.000
    C12      C        0.12120    0.00280    0.61455    1.000
    C13      C        0.84240    0.64070    0.02416    1.000
    C14      C        0.22830    0.69340    0.51410    1.000
    C15      C        0.26310    0.89130    0.13408    1.000
    C16      C        0.34240    0.64070    0.47584    1.000
    C17      C        0.10230    0.11550    0.75789    1.000
    C18      C        0.49230    0.90060    0.54411    1.000
    C19      C        0.65760    0.35930    0.52416    1.000
    C20      C        0.37530    0.80210    0.92707    1.000
    C21      C        0.56110    0.39040    0.79662    1.000
    C22      C        0.87880    0.99720    0.38545    1.000
    C23      C        0.63050    0.10250    0.50862    1.000
    C24      C        0.27170    0.30660    0.01410    1.000
    C25      C        0.00400    0.04650    0.33318    1.000
    C26      C        0.87530    0.80210    0.57293    1.000
    C27      C        0.26950    0.30470    0.44347    1.000
    C28      C        0.51270    0.99140    0.23880    1.000
    C29      C        0.37880    0.99720    0.11455    1.000
    C30      C        0.62120    0.00280    0.88545    1.000
    C31      C        0.60230    0.11550    0.74211    1.000
    C32      C        0.48730    0.00860    0.76120    1.000
    C33      C        0.72500    0.16490    0.79554    1.000
    C34      C        0.37870    0.99710    0.44791    1.000
    C35      C        0.23690    0.10870    0.63408    1.000
    C36      C        0.77500    0.83510    0.29554    1.000
    C37      C        0.86950    0.89750    0.00862    1.000
    C38      C        0.12470    0.19790    0.42707    1.000
    C39      C        0.50770    0.09940    0.45589    1.000
    C40      C        0.43890    0.60960    0.20338    1.000
    C41      C        0.77170    0.30660    0.48590    1.000
    C42      C        0.39770    0.88450    0.25789    1.000
    C43      C        0.72830    0.69340    0.98590    1.000
    C44      C        0.98730    0.00860    0.73880    1.000
    C45      C        0.90080    0.29580    0.70075    1.000
    C46      C        0.73690    0.10870    0.86592    1.000
    C47      C        0.06110    0.39040    0.70338    1.000
    C48      C        0.99600    0.95350    0.66682    1.000
    C49      C        0.89770    0.88450    0.24211    1.000
    C50      C        0.22500    0.16490    0.70446    1.000
    C51      C        0.36950    0.89750    0.49138    1.000
    C52      C        0.59920    0.70420    0.20075    1.000
    C53      C        0.87870    0.99710    0.05209    1.000
    C54      C        0.62130    0.00290    0.55209    1.000
    C55      C        0.76310    0.89130    0.36592    1.000
    C56      C        0.93890    0.60960    0.29662    1.000
    C57      C        0.01270    0.99140    0.26120    1.000
    C58      C        0.50400    0.04650    0.16682    1.000
    C59      C        0.76950    0.30470    0.05653    1.000
    C60      C        0.99230    0.90060    0.95589    1.000
    O1       O        0.84010    0.36865    0.11409    1.000
    O2       O        0.69800    0.68056    0.48339    1.000
    O3       O        0.35110    0.60015    0.14335    1.000
    O4       O        0.87370    0.84888    0.65102    1.000
    O5       O        0.40550    0.54478    0.26466    1.000
    O6       O        0.62630    0.15112    0.15102    1.000
    O7       O        0.59450    0.45522    0.73534    1.000
    O8       O        0.86920    0.55777    0.98804    1.000
    O9       O        0.84100    0.27386    0.78202    1.000
    O10      O        0.64890    0.39985    0.85665    1.000
    O11      O        0.14890    0.39985    0.64335    1.000
    O12      O        0.12630    0.15112    0.34898    1.000
    O13      O        0.37370    0.84888    0.84898    1.000
    O14      O        0.30200    0.31944    0.51661    1.000
    O15      O        0.90550    0.54478    0.23534    1.000
    O16      O        0.34010    0.36865    0.38591    1.000
    O17      O        0.40090    0.67393    0.40855    1.000
    O18      O        0.36920    0.55777    0.51196    1.000
    O19      O        0.26630    0.19782    0.97969    1.000
    O20      O        0.65990    0.63135    0.61409    1.000
    O21      O        0.09450    0.45522    0.76466    1.000
    O22      O        0.59910    0.32607    0.59145    1.000
    O23      O        0.15900    0.72614    0.21798    1.000
    O24      O        0.13080    0.44223    0.01196    1.000
    O25      O        0.63080    0.44223    0.48804    1.000
    O26      O        0.80200    0.31944    0.98339    1.000
    O27      O        0.34100    0.27386    0.71798    1.000
    O28      O        0.85110    0.60015    0.35665    1.000
    O29      O        0.15990    0.63135    0.88591    1.000
    O30      O        0.19800    0.68056    0.01661    1.000
    O31      O        0.76630    0.19782    0.52031    1.000
    O32      O        0.73370    0.80218    0.02031    1.000
    O33      O        0.90090    0.67393    0.09145    1.000
    O34      O        0.09910    0.32607    0.90855    1.000
    O35      O        0.65900    0.72614    0.28202    1.000
    O36      O        0.23370    0.80218    0.47969    1.000
