# CIF file generated by openbabel 3.1.0, see https://openbabel.org
data_I
_chemical_name_common 'image0'
_cell_length_a 27.2662
_cell_length_b 11.5396
_cell_length_c 13.9678
_cell_angle_alpha 90
_cell_angle_beta 90
_cell_angle_gamma 90
_space_group_name_H-M_alt 'P 1'
_space_group_name_Hall 'P 1'
loop_
    _symmetry_equiv_pos_as_xyz
    x,y,z
loop_
    _atom_site_label
    _atom_site_type_symbol
    _atom_site_fract_x
    _atom_site_fract_y
    _atom_site_fract_z
    _atom_site_occupancy
    O1       O        0.05617    0.96740    0.27820    1.000
    O2       O        0.05250    0.06230    0.41570    1.000
    C1       C        0.07220    0.03710    0.33870    1.000
    C2       C        0.20504    0.22230    0.27470    1.000
    C3       C        0.29486    0.47680    0.22720    1.000
    C4       C        0.11970    0.09880    0.31650    1.000
    C5       C        0.18410    0.22620    0.36460    1.000
    H1       H        0.19940    0.27160    0.41380    1.000
    C6       C        0.14200    0.16660    0.38490    1.000
    H2       H        0.12780    0.17220    0.44760    1.000
    C7       C        0.18240    0.15430    0.20570    1.000
    H3       H        0.19620    0.14960    0.14260    1.000
    C8       C        0.14020    0.09320    0.22700    1.000
    H4       H        0.12510    0.04630    0.17850    1.000
    C9       C        0.33190    0.49340    0.29100    1.000
    H5       H        0.33060    0.45520    0.35200    1.000
    C10      C        0.29900    0.52900    0.13970    1.000
    H6       H        0.27360    0.51910    0.09280    1.000
    C11      C        0.33980    0.59640    0.11810    1.000
    H7       H        0.34240    0.63110    0.05580    1.000
    C12      C        0.37619    0.61420    0.18360    1.000
    C13      C        0.41947    0.69020    0.15860    1.000
    C14      C        0.37080    0.56280    0.27050    1.000
    H8       H        0.39510    0.57610    0.31900    1.000
    O3       O        0.44657    0.72170    0.22580    1.000
    O4       O        0.42521    0.71470    0.07250    1.000
    O5       O        0.44383    0.03260    0.77820    1.000
    O6       O        0.44750    0.93770    0.91570    1.000
    C15      C        0.42780    0.96290    0.83870    1.000
    C16      C        0.29496    0.77770    0.77470    1.000
    C17      C        0.20514    0.52320    0.72720    1.000
    C18      C        0.38030    0.90120    0.81650    1.000
    C19      C        0.31590    0.77380    0.86460    1.000
    H9       H        0.30060    0.72840    0.91380    1.000
    C20      C        0.35800    0.83340    0.88490    1.000
    H10      H        0.37220    0.82780    0.94760    1.000
    C21      C        0.31760    0.84570    0.70570    1.000
    H11      H        0.30380    0.85040    0.64260    1.000
    C22      C        0.35980    0.90680    0.72700    1.000
    H12      H        0.37490    0.95370    0.67850    1.000
    C23      C        0.16810    0.50660    0.79100    1.000
    H13      H        0.16940    0.54480    0.85200    1.000
    C24      C        0.20100    0.47100    0.63970    1.000
    H14      H        0.22640    0.48090    0.59280    1.000
    C25      C        0.16020    0.40360    0.61810    1.000
    H15      H        0.15760    0.36890    0.55580    1.000
    C26      C        0.12381    0.38580    0.68360    1.000
    C27      C        0.08053    0.30980    0.65860    1.000
    C28      C        0.12920    0.43720    0.77050    1.000
    H16      H        0.10490    0.42390    0.81900    1.000
    O7       O        0.05343    0.27830    0.72580    1.000
    O8       O        0.07479    0.28530    0.57250    1.000
    O9       O        0.44383    0.96740    0.22180    1.000
    O10      O        0.44750    0.06230    0.08430    1.000
    C29      C        0.42780    0.03710    0.16130    1.000
    C30      C        0.29496    0.22230    0.22530    1.000
    C31      C        0.20514    0.47680    0.27280    1.000
    C32      C        0.38030    0.09880    0.18350    1.000
    C33      C        0.31590    0.22620    0.13540    1.000
    H17      H        0.30060    0.27160    0.08620    1.000
    C34      C        0.35800    0.16660    0.11510    1.000
    H18      H        0.37220    0.17220    0.05240    1.000
    C35      C        0.31760    0.15430    0.29430    1.000
    H19      H        0.30380    0.14960    0.35740    1.000
    C36      C        0.35980    0.09320    0.27300    1.000
    H20      H        0.37490    0.04630    0.32150    1.000
    C37      C        0.16810    0.49340    0.20900    1.000
    H21      H        0.16940    0.45520    0.14800    1.000
    C38      C        0.20100    0.52900    0.36030    1.000
    H22      H        0.22640    0.51910    0.40720    1.000
    C39      C        0.16020    0.59640    0.38190    1.000
    H23      H        0.15760    0.63110    0.44420    1.000
    C40      C        0.12381    0.61420    0.31640    1.000
    C41      C        0.08053    0.69020    0.34140    1.000
    C42      C        0.12920    0.56280    0.22950    1.000
    H24      H        0.10490    0.57610    0.18100    1.000
    O11      O        0.05343    0.72170    0.27420    1.000
    O12      O        0.07479    0.71470    0.42750    1.000
    O13      O        0.05617    0.03260    0.72180    1.000
    O14      O        0.05250    0.93770    0.58430    1.000
    C43      C        0.07220    0.96290    0.66130    1.000
    C44      C        0.20504    0.77770    0.72530    1.000
    C45      C        0.29486    0.52320    0.77280    1.000
    C46      C        0.11970    0.90120    0.68350    1.000
    C47      C        0.18410    0.77380    0.63540    1.000
    H25      H        0.19940    0.72840    0.58620    1.000
    C48      C        0.14200    0.83340    0.61510    1.000
    H26      H        0.12780    0.82780    0.55240    1.000
    C49      C        0.18240    0.84570    0.79430    1.000
    H27      H        0.19620    0.85040    0.85740    1.000
    C50      C        0.14020    0.90680    0.77300    1.000
    H28      H        0.12510    0.95370    0.82150    1.000
    C51      C        0.33190    0.50660    0.70900    1.000
    H29      H        0.33060    0.54480    0.64800    1.000
    C52      C        0.29900    0.47100    0.86030    1.000
    H30      H        0.27360    0.48090    0.90720    1.000
    C53      C        0.33980    0.40360    0.88190    1.000
    H31      H        0.34240    0.36890    0.94420    1.000
    C54      C        0.37619    0.38580    0.81640    1.000
    C55      C        0.41947    0.30980    0.84140    1.000
    C56      C        0.37080    0.43720    0.72950    1.000
    H32      H        0.39510    0.42390    0.68100    1.000
    O15      O        0.44657    0.27830    0.77420    1.000
    O16      O        0.42521    0.28530    0.92750    1.000
    O17      O        0.94383    0.03260    0.72180    1.000
    O18      O        0.94750    0.93770    0.58430    1.000
    C57      C        0.92780    0.96290    0.66130    1.000
    C58      C        0.79496    0.77770    0.72530    1.000
    C59      C        0.70514    0.52320    0.77280    1.000
    C60      C        0.88030    0.90120    0.68350    1.000
    C61      C        0.81590    0.77380    0.63540    1.000
    H33      H        0.80060    0.72840    0.58620    1.000
    C62      C        0.85800    0.83340    0.61510    1.000
    H34      H        0.87220    0.82780    0.55240    1.000
    C63      C        0.81760    0.84570    0.79430    1.000
    H35      H        0.80380    0.85040    0.85740    1.000
    C64      C        0.85980    0.90680    0.77300    1.000
    H36      H        0.87490    0.95370    0.82150    1.000
    C65      C        0.66810    0.50660    0.70900    1.000
    H37      H        0.66940    0.54480    0.64800    1.000
    C66      C        0.70100    0.47100    0.86030    1.000
    H38      H        0.72640    0.48090    0.90720    1.000
    C67      C        0.66020    0.40360    0.88190    1.000
    H39      H        0.65760    0.36890    0.94420    1.000
    C68      C        0.62381    0.38580    0.81640    1.000
    C69      C        0.58053    0.30980    0.84140    1.000
    C70      C        0.62920    0.43720    0.72950    1.000
    H40      H        0.60490    0.42390    0.68100    1.000
    O19      O        0.55343    0.27830    0.77420    1.000
    O20      O        0.57479    0.28530    0.92750    1.000
    O21      O        0.55617    0.96740    0.22180    1.000
    O22      O        0.55250    0.06230    0.08430    1.000
    C71      C        0.57220    0.03710    0.16130    1.000
    C72      C        0.70504    0.22230    0.22530    1.000
    C73      C        0.79486    0.47680    0.27280    1.000
    C74      C        0.61970    0.09880    0.18350    1.000
    C75      C        0.68410    0.22620    0.13540    1.000
    H41      H        0.69940    0.27160    0.08620    1.000
    C76      C        0.64200    0.16660    0.11510    1.000
    H42      H        0.62780    0.17220    0.05240    1.000
    C77      C        0.68240    0.15430    0.29430    1.000
    H43      H        0.69620    0.14960    0.35740    1.000
    C78      C        0.64020    0.09320    0.27300    1.000
    H44      H        0.62510    0.04630    0.32150    1.000
    C79      C        0.83190    0.49340    0.20900    1.000
    H45      H        0.83060    0.45520    0.14800    1.000
    C80      C        0.79900    0.52900    0.36030    1.000
    H46      H        0.77360    0.51910    0.40720    1.000
    C81      C        0.83980    0.59640    0.38190    1.000
    H47      H        0.84240    0.63110    0.44420    1.000
    C82      C        0.87619    0.61420    0.31640    1.000
    C83      C        0.91947    0.69020    0.34140    1.000
    C84      C        0.87080    0.56280    0.22950    1.000
    H48      H        0.89510    0.57610    0.18100    1.000
    O23      O        0.94657    0.72170    0.27420    1.000
    O24      O        0.92521    0.71470    0.42750    1.000
    O25      O        0.55617    0.03260    0.77820    1.000
    O26      O        0.55250    0.93770    0.91570    1.000
    C85      C        0.57220    0.96290    0.83870    1.000
    C86      C        0.70504    0.77770    0.77470    1.000
    C87      C        0.79486    0.52320    0.72720    1.000
    C88      C        0.61970    0.90120    0.81650    1.000
    C89      C        0.68410    0.77380    0.86460    1.000
    H49      H        0.69940    0.72840    0.91380    1.000
    C90      C        0.64200    0.83340    0.88490    1.000
    H50      H        0.62780    0.82780    0.94760    1.000
    C91      C        0.68240    0.84570    0.70570    1.000
    H51      H        0.69620    0.85040    0.64260    1.000
    C92      C        0.64020    0.90680    0.72700    1.000
    H52      H        0.62510    0.95370    0.67850    1.000
    C93      C        0.83190    0.50660    0.79100    1.000
    H53      H        0.83060    0.54480    0.85200    1.000
    C94      C        0.79900    0.47100    0.63970    1.000
    H54      H        0.77360    0.48090    0.59280    1.000
    C95      C        0.83980    0.40360    0.61810    1.000
    H55      H        0.84240    0.36890    0.55580    1.000
    C96      C        0.87619    0.38580    0.68360    1.000
    C97      C        0.91947    0.30980    0.65860    1.000
    C98      C        0.87080    0.43720    0.77050    1.000
    H56      H        0.89510    0.42390    0.81900    1.000
    O27      O        0.94657    0.27830    0.72580    1.000
    O28      O        0.92521    0.28530    0.57250    1.000
    O29      O        0.94383    0.96740    0.27820    1.000
    O30      O        0.94750    0.06230    0.41570    1.000
    C99      C        0.92780    0.03710    0.33870    1.000
    C100     C        0.79496    0.22230    0.27470    1.000
    C101     C        0.70514    0.47680    0.22720    1.000
    C102     C        0.88030    0.09880    0.31650    1.000
    C103     C        0.81590    0.22620    0.36460    1.000
    H57      H        0.80060    0.27160    0.41380    1.000
    C104     C        0.85800    0.16660    0.38490    1.000
    H58      H        0.87220    0.17220    0.44760    1.000
    C105     C        0.81760    0.15430    0.20570    1.000
    H59      H        0.80380    0.14960    0.14260    1.000
    C106     C        0.85980    0.09320    0.22700    1.000
    H60      H        0.87490    0.04630    0.17850    1.000
    C107     C        0.66810    0.49340    0.29100    1.000
    H61      H        0.66940    0.45520    0.35200    1.000
    C108     C        0.70100    0.52900    0.13970    1.000
    H62      H        0.72640    0.51910    0.09280    1.000
    C109     C        0.66020    0.59640    0.11810    1.000
    H63      H        0.65760    0.63110    0.05580    1.000
    C110     C        0.62381    0.61420    0.18360    1.000
    C111     C        0.58053    0.69020    0.15860    1.000
    C112     C        0.62920    0.56280    0.27050    1.000
    H64      H        0.60490    0.57610    0.31900    1.000
    O31      O        0.55343    0.72170    0.22580    1.000
    O32      O        0.57479    0.71470    0.07250    1.000
    Ni1      Ni       0.00000    0.85030    0.28137    1.000
    O33      O        0.00000    0.84420    0.42950    1.000
    Ni2      Ni       0.50000    0.14970    0.78137    1.000
    O34      O        0.50000    0.15580    0.92950    1.000
    Ni3      Ni       0.50000    0.85030    0.21863    1.000
    O35      O        0.50000    0.84420    0.07050    1.000
    Ni4      Ni       0.00000    0.14970    0.71863    1.000
    O36      O        0.00000    0.15580    0.57050    1.000
    Ni5      Ni       0.00000    0.00000    0.50000    1.000
    Ni6      Ni       0.50000    0.00000    0.00000    1.000
    C113     C        0.25000    0.28950    0.25000    1.000
    C114     C        0.25000    0.40660    0.25000    1.000
    C115     C        0.25000    0.71050    0.75000    1.000
    C116     C        0.25000    0.59340    0.75000    1.000
    C117     C        0.75000    0.71050    0.75000    1.000
    C118     C        0.75000    0.59340    0.75000    1.000
    C119     C        0.75000    0.28950    0.25000    1.000
    C120     C        0.75000    0.40660    0.25000    1.000
