# CIF file generated by openbabel 3.1.0, see https://openbabel.org
data_I
_chemical_name_common 'ZECKID_clean'
_cell_length_a 14.0571
_cell_length_b 14.0571
_cell_length_c 14.0571
_cell_angle_alpha 108.353
_cell_angle_beta 110.033
_cell_angle_gamma 110.033
_space_group_name_H-M_alt 'P 1'
_space_group_name_Hall 'P 1'
loop_
    _symmetry_equiv_pos_as_xyz
    x,y,z
loop_
    _atom_site_label
    _atom_site_type_symbol
    _atom_site_fract_x
    _atom_site_fract_y
    _atom_site_fract_z
    _atom_site_occupancy
    Cu1      Cu       0.89857    0.69884    0.80027    1.000
    Cu2      Cu       0.10143    0.90170    0.80027    1.000
    Cu3      Cu       0.60143    0.55027    0.15170    1.000
    Cu4      Cu       0.39857    0.55027    0.94884    1.000
    H1       H        0.65710    0.54940    0.58670    1.000
    H2       H        0.67570    0.46470    0.49920    1.000
    H3       H        0.59950    0.51870    0.45480    1.000
    H4       H        0.34290    0.92960    0.89230    1.000
    H5       H        0.32430    0.82350    0.78900    1.000
    H6       H        0.40050    0.85530    0.91920    1.000
    H7       H        0.53730    0.33670    0.17960    1.000
    H8       H        0.53450    0.24920    0.07350    1.000
    H9       H        0.43610    0.20480    0.10530    1.000
    H10      H        0.46270    0.64230    0.79940    1.000
    H11      H        0.46550    0.53900    0.71470    1.000
    H12      H        0.56390    0.66920    0.76870    1.000
    H13      H        0.03730    0.92960    0.58670    1.000
    H14      H        0.03450    0.82350    0.49920    1.000
    H15      H        0.93610    0.85530    0.45480    1.000
    H16      H        0.96270    0.54940    0.89230    1.000
    H17      H        0.96550    0.46470    0.78900    1.000
    H18      H        0.06390    0.51870    0.91920    1.000
    H19      H        0.84290    0.64230    0.17960    1.000
    H20      H        0.82430    0.53900    0.07350    1.000
    H21      H        0.90050    0.66920    0.10530    1.000
    H22      H        0.15710    0.33670    0.79940    1.000
    H23      H        0.17570    0.24920    0.71470    1.000
    H24      H        0.09950    0.20480    0.76870    1.000
    C1       C        0.77510    0.63450    0.54800    1.000
    C2       C        0.66740    0.53290    0.51970    1.000
    C3       C        0.22490    0.77290    0.85940    1.000
    C4       C        0.33260    0.85230    0.86550    1.000
    C5       C        0.41350    0.29800    0.02290    1.000
    C6       C        0.48680    0.26970    0.10230    1.000
    C7       C        0.58650    0.60940    0.88450    1.000
    C8       C        0.51320    0.61550    0.78290    1.000
    C9       C        0.91350    0.77290    0.54800    1.000
    C10      C        0.98680    0.85230    0.51970    1.000
    C11      C        0.08650    0.63450    0.85940    1.000
    C12      C        0.01320    0.53290    0.86550    1.000
    C13      C        0.72490    0.60940    0.02290    1.000
    C14      C        0.83260    0.61550    0.10230    1.000
    C15      C        0.27510    0.29800    0.88450    1.000
    C16      C        0.16740    0.26970    0.78290    1.000
    C17      C        0.79920    0.67700    0.47620    1.000
    C18      C        0.72480    0.62940    0.35420    1.000
    C19      C        0.20080    0.67700    0.87780    1.000
    C20      C        0.27520    0.62940    0.90460    1.000
    C21      C        0.29920    0.22620    0.92700    1.000
    C22      C        0.22480    0.10420    0.87940    1.000
    C23      C        0.70080    0.62780    0.92700    1.000
    C24      C        0.77520    0.65460    0.87940    1.000
    N1       N        0.86820    0.70220    0.65420    1.000
    N2       N        0.13180    0.78600    0.83400    1.000
    N3       N        0.45200    0.40420    0.03600    1.000
    N4       N        0.54800    0.58400    0.95220    1.000
    N5       N        0.95200    0.78600    0.65420    1.000
    N6       N        0.04800    0.70220    0.83400    1.000
    N7       N        0.63180    0.58400    0.03600    1.000
    N8       N        0.36820    0.40420    0.95220    1.000
    O1       O        0.62300    0.53970    0.29650    1.000
    O2       O        0.37700    0.67350    0.91670    1.000
    O3       O        0.25680    0.04650    0.92350    1.000
    O4       O        0.74320    0.66670    0.78970    1.000
    O5       O        0.75680    0.67350    0.29650    1.000
    O6       O        0.24320    0.53970    0.91670    1.000
    O7       O        0.87700    0.66670    0.92350    1.000
    O8       O        0.12300    0.04650    0.78970    1.000
