# CIF file generated by openbabel 3.1.0, see https://openbabel.org
data_I
_chemical_name_common 'image0'
_cell_length_a 16.304
_cell_length_b 27.649
_cell_length_c 16.4078
_cell_angle_alpha 90
_cell_angle_beta 117.32
_cell_angle_gamma 90
_space_group_name_H-M_alt 'P 1'
_space_group_name_Hall 'P 1'
loop_
    _symmetry_equiv_pos_as_xyz
    x,y,z
loop_
    _atom_site_label
    _atom_site_type_symbol
    _atom_site_fract_x
    _atom_site_fract_y
    _atom_site_fract_z
    _atom_site_occupancy
    Zn1      Zn       0.05511    0.52822    0.81119    1.000
    O1       O        0.93230    0.61570    0.75570    1.000
    O2       O        0.92750    0.53610    0.73510    1.000
    O3       O        0.10840    0.54720    0.93730    1.000
    O4       O        0.09890    0.62710    0.93810    1.000
    O5       O        0.13460    0.53010    0.75370    1.000
    O6       O        0.12680    0.60760    0.75520    1.000
    N1       N        0.06130    0.45490    0.83130    1.000
    C1       C        0.23040    0.53360    0.65080    1.000
    H1       H        0.21620    0.50260    0.66580    1.000
    C2       C        0.29760    0.58200    0.57380    1.000
    C3       C        0.44430    0.58280    0.56220    1.000
    C4       C        0.29990    0.58750    0.42210    1.000
    C5       C        0.44380    0.58130    0.41370    1.000
    C6       C        0.49770    0.57980    0.66620    1.000
    H2       H        0.51130    0.61250    0.69200    1.000
    H3       H        0.55570    0.56230    0.68360    1.000
    H4       H        0.46060    0.56260    0.69000    1.000
    C7       C        0.34810    0.58400    0.51810    1.000
    C8       C        0.27030    0.54530    0.21950    1.000
    H5       H        0.29050    0.51550    0.25130    1.000
    C9       C        0.07220    0.30210    0.86290    1.000
    C10      C        0.49260    0.58240    0.50930    1.000
    C11      C        0.64320    0.54040    0.56540    1.000
    H6       H        0.61090    0.51170    0.53630    1.000
    C12      C        0.49540    0.57730    0.35630    1.000
    H7       H        0.55860    0.58920    0.39200    1.000
    H8       H        0.46370    0.59680    0.30050    1.000
    H9       H        0.49700    0.54340    0.33960    1.000
    C13      C        0.73970    0.62180    0.65360    1.000
    H10      H        0.77200    0.65040    0.68340    1.000
    C14      C        0.59410    0.58130    0.55710    1.000
    C15      C        0.19560    0.59270    0.37560    1.000
    H11      H        0.17160    0.58180    0.41740    1.000
    H12      H        0.16880    0.57290    0.31980    1.000
    H13      H        0.17900    0.62670    0.35950    1.000
    C16      C        0.78730    0.57960    0.66220    1.000
    C17      C        0.29420    0.58770    0.26870    1.000
    C18      C        0.34820    0.58480    0.37030    1.000
    C19      C        0.20420    0.57460    0.68000    1.000
    C20      C        0.89010    0.57700    0.72350    1.000
    C21      C        0.27780    0.53780    0.59930    1.000
    H14      H        0.29720    0.50920    0.58100    1.000
    C22      C        0.18720    0.58910    0.07850    1.000
    C23      C        0.06900    0.35330    0.85410    1.000
    C24      C        0.64320    0.62270    0.60090    1.000
    H15      H        0.61090    0.65220    0.59490    1.000
    C25      C        0.26990    0.62150    0.60140    1.000
    H16      H        0.28330    0.65250    0.58560    1.000
    C26      C        0.21660    0.54470    0.12300    1.000
    H17      H        0.20120    0.51520    0.08970    1.000
    C27      C        0.26560    0.63020    0.22110    1.000
    H18      H        0.28320    0.65990    0.25360    1.000
    C28      C        0.11260    0.42680    0.80460    1.000
    H19      H        0.14730    0.44200    0.77850    1.000
    C29      C        0.99660    0.27510    0.85740    1.000
    H20      H        0.94390    0.29180    0.85350    1.000
    C30      C        0.21200    0.63120    0.12730    1.000
    H21      H        0.19230    0.66130    0.09650    1.000
    C31      C        0.15170    0.57060    0.73390    1.000
    C32      C        0.74030    0.53870    0.61550    1.000
    H22      H        0.77290    0.50990    0.61720    1.000
    C33      C        0.01540    0.43110    0.87120    1.000
    H23      H        0.97920    0.44970    0.89150    1.000
    C34      C        0.22160    0.61790    0.65310    1.000
    H24      H        0.20060    0.64660    0.66960    1.000
    C35      C        0.12770    0.58810    0.97610    1.000
    C36      C        0.01870    0.38220    0.88350    1.000
    H25      H        0.98600    0.36790    0.91260    1.000
    C37      C        0.14850    0.27530    0.87250    1.000
    H26      H        0.20220    0.29200    0.87920    1.000
    C38      C        0.11690    0.37730    0.81350    1.000
    H27      H        0.15270    0.35920    0.79200    1.000
    Zn2      Zn       0.97827    0.67473    0.84629    1.000
    O7       O        0.02950    0.72740    0.93580    1.000
    O8       O        0.06260    0.69060    0.78770    1.000
    O9       O        0.87630    0.72320    0.75710    1.000
    Zn3      Zn       0.05480    0.64964    0.80343    1.000
    Zn4      Zn       0.05511    0.97178    0.81119    1.000
    O10      O        0.93230    0.88430    0.75570    1.000
    O11      O        0.92750    0.96390    0.73510    1.000
    O12      O        0.10840    0.95280    0.93730    1.000
    O13      O        0.09890    0.87290    0.93810    1.000
    O14      O        0.13460    0.96990    0.75370    1.000
    O15      O        0.12680    0.89240    0.75520    1.000
    N2       N        0.06130    0.04510    0.83130    1.000
    C39      C        0.23040    0.96640    0.65080    1.000
    H28      H        0.21620    0.99740    0.66580    1.000
    C40      C        0.29760    0.91800    0.57380    1.000
    C41      C        0.44430    0.91720    0.56220    1.000
    C42      C        0.29990    0.91250    0.42210    1.000
    C43      C        0.44380    0.91870    0.41370    1.000
    C44      C        0.49770    0.92020    0.66620    1.000
    H29      H        0.51130    0.88750    0.69200    1.000
    H30      H        0.55570    0.93770    0.68360    1.000
    H31      H        0.46060    0.93740    0.69000    1.000
    C45      C        0.34810    0.91600    0.51810    1.000
    C46      C        0.27030    0.95470    0.21950    1.000
    H32      H        0.29050    0.98450    0.25130    1.000
    C47      C        0.07220    0.19790    0.86290    1.000
    C48      C        0.49260    0.91760    0.50930    1.000
    C49      C        0.64320    0.95960    0.56540    1.000
    H33      H        0.61090    0.98830    0.53630    1.000
    C50      C        0.49540    0.92270    0.35630    1.000
    H34      H        0.55860    0.91080    0.39200    1.000
    H35      H        0.46370    0.90320    0.30050    1.000
    H36      H        0.49700    0.95660    0.33960    1.000
    C51      C        0.73970    0.87820    0.65360    1.000
    H37      H        0.77200    0.84960    0.68340    1.000
    C52      C        0.59410    0.91870    0.55710    1.000
    C53      C        0.19560    0.90730    0.37560    1.000
    H38      H        0.17160    0.91820    0.41740    1.000
    H39      H        0.16880    0.92710    0.31980    1.000
    H40      H        0.17900    0.87330    0.35950    1.000
    C54      C        0.78730    0.92040    0.66220    1.000
    C55      C        0.29420    0.91230    0.26870    1.000
    C56      C        0.34820    0.91520    0.37030    1.000
    C57      C        0.20420    0.92540    0.68000    1.000
    C58      C        0.89010    0.92300    0.72350    1.000
    C59      C        0.27780    0.96220    0.59930    1.000
    H41      H        0.29720    0.99080    0.58100    1.000
    C60      C        0.18720    0.91090    0.07850    1.000
    C61      C        0.06900    0.14670    0.85410    1.000
    C62      C        0.64320    0.87730    0.60090    1.000
    H42      H        0.61090    0.84780    0.59490    1.000
    C63      C        0.26990    0.87850    0.60140    1.000
    H43      H        0.28330    0.84750    0.58560    1.000
    C64      C        0.21660    0.95530    0.12300    1.000
    H44      H        0.20120    0.98480    0.08970    1.000
    C65      C        0.26560    0.86980    0.22110    1.000
    H45      H        0.28320    0.84010    0.25360    1.000
    C66      C        0.11260    0.07320    0.80460    1.000
    H46      H        0.14730    0.05800    0.77850    1.000
    C67      C        0.99660    0.22490    0.85740    1.000
    H47      H        0.94390    0.20820    0.85350    1.000
    C68      C        0.21200    0.86880    0.12730    1.000
    H48      H        0.19230    0.83870    0.09650    1.000
    C69      C        0.15170    0.92940    0.73390    1.000
    C70      C        0.74030    0.96130    0.61550    1.000
    H49      H        0.77290    0.99010    0.61720    1.000
    C71      C        0.01540    0.06890    0.87120    1.000
    H50      H        0.97920    0.05030    0.89150    1.000
    C72      C        0.22160    0.88210    0.65310    1.000
    H51      H        0.20060    0.85340    0.66960    1.000
    C73      C        0.12770    0.91190    0.97610    1.000
    C74      C        0.01870    0.11780    0.88350    1.000
    H52      H        0.98600    0.13210    0.91260    1.000
    C75      C        0.14850    0.22470    0.87250    1.000
    H53      H        0.20220    0.20800    0.87920    1.000
    C76      C        0.11690    0.12270    0.81350    1.000
    H54      H        0.15270    0.14080    0.79200    1.000
    Zn5      Zn       0.97827    0.82527    0.84629    1.000
    O16      O        0.02950    0.77260    0.93580    1.000
    O17      O        0.06260    0.80940    0.78770    1.000
    O18      O        0.87630    0.77680    0.75710    1.000
    Zn6      Zn       0.05480    0.85036    0.80343    1.000
    Zn7      Zn       0.94489    0.02822    0.18881    1.000
    O19      O        0.06770    0.11570    0.24430    1.000
    O20      O        0.07250    0.03610    0.26490    1.000
    O21      O        0.89160    0.04720    0.06270    1.000
    O22      O        0.90110    0.12710    0.06190    1.000
    O23      O        0.86540    0.03010    0.24630    1.000
    O24      O        0.87320    0.10760    0.24480    1.000
    N3       N        0.93870    0.95490    0.16870    1.000
    C77      C        0.76960    0.03360    0.34920    1.000
    H55      H        0.78380    0.00260    0.33420    1.000
    C78      C        0.70240    0.08200    0.42620    1.000
    C79      C        0.55570    0.08280    0.43780    1.000
    C80      C        0.70010    0.08750    0.57790    1.000
    C81      C        0.55620    0.08130    0.58630    1.000
    C82      C        0.50230    0.07980    0.33380    1.000
    H56      H        0.48870    0.11250    0.30800    1.000
    H57      H        0.44430    0.06230    0.31640    1.000
    H58      H        0.53940    0.06260    0.31000    1.000
    C83      C        0.65190    0.08400    0.48190    1.000
    C84      C        0.72970    0.04530    0.78050    1.000
    H59      H        0.70950    0.01550    0.74870    1.000
    C85      C        0.92780    0.80210    0.13710    1.000
    C86      C        0.50740    0.08240    0.49070    1.000
    C87      C        0.35680    0.04040    0.43460    1.000
    H60      H        0.38910    0.01170    0.46370    1.000
    C88      C        0.50460    0.07730    0.64370    1.000
    H61      H        0.44140    0.08920    0.60800    1.000
    H62      H        0.53630    0.09680    0.69950    1.000
    H63      H        0.50300    0.04340    0.66040    1.000
    C89      C        0.26030    0.12180    0.34640    1.000
    H64      H        0.22800    0.15040    0.31660    1.000
    C90      C        0.40590    0.08130    0.44290    1.000
    C91      C        0.80440    0.09270    0.62440    1.000
    H65      H        0.82840    0.08180    0.58260    1.000
    H66      H        0.83120    0.07290    0.68020    1.000
    H67      H        0.82100    0.12670    0.64050    1.000
    C92      C        0.21270    0.07960    0.33780    1.000
    C93      C        0.70580    0.08770    0.73130    1.000
    C94      C        0.65180    0.08480    0.62970    1.000
    C95      C        0.79580    0.07460    0.32000    1.000
    C96      C        0.10990    0.07700    0.27650    1.000
    C97      C        0.72220    0.03780    0.40070    1.000
    H68      H        0.70280    0.00920    0.41900    1.000
    C98      C        0.81280    0.08910    0.92150    1.000
    C99      C        0.93100    0.85330    0.14590    1.000
    C100     C        0.35680    0.12270    0.39910    1.000
    H69      H        0.38910    0.15220    0.40510    1.000
    C101     C        0.73010    0.12150    0.39860    1.000
    H70      H        0.71670    0.15250    0.41440    1.000
    C102     C        0.78340    0.04470    0.87700    1.000
    H71      H        0.79880    0.01520    0.91030    1.000
    C103     C        0.73440    0.13020    0.77890    1.000
    H72      H        0.71680    0.15990    0.74640    1.000
    C104     C        0.88740    0.92680    0.19540    1.000
    H73      H        0.85270    0.94200    0.22150    1.000
    C105     C        0.00340    0.77510    0.14260    1.000
    H74      H        0.05610    0.79180    0.14650    1.000
    C106     C        0.78800    0.13120    0.87270    1.000
    H75      H        0.80770    0.16130    0.90350    1.000
    C107     C        0.84830    0.07060    0.26610    1.000
    C108     C        0.25970    0.03870    0.38450    1.000
    H76      H        0.22710    0.00990    0.38280    1.000
    C109     C        0.98460    0.93110    0.12880    1.000
    H77      H        0.02080    0.94970    0.10850    1.000
    C110     C        0.77840    0.11790    0.34690    1.000
    H78      H        0.79940    0.14660    0.33040    1.000
    C111     C        0.87230    0.08810    0.02390    1.000
    C112     C        0.98130    0.88220    0.11650    1.000
    H79      H        0.01400    0.86790    0.08740    1.000
    C113     C        0.85150    0.77530    0.12750    1.000
    H80      H        0.79780    0.79200    0.12080    1.000
    C114     C        0.88310    0.87730    0.18650    1.000
    H81      H        0.84730    0.85920    0.20800    1.000
    Zn8      Zn       0.02173    0.17473    0.15371    1.000
    O25      O        0.97050    0.22740    0.06420    1.000
    O26      O        0.93740    0.19060    0.21230    1.000
    O27      O        0.12370    0.22320    0.24290    1.000
    Zn9      Zn       0.94520    0.14964    0.19657    1.000
    Zn10     Zn       0.94489    0.47178    0.18881    1.000
    O28      O        0.06770    0.38430    0.24430    1.000
    O29      O        0.07250    0.46390    0.26490    1.000
    O30      O        0.89160    0.45280    0.06270    1.000
    O31      O        0.90110    0.37290    0.06190    1.000
    O32      O        0.86540    0.46990    0.24630    1.000
    O33      O        0.87320    0.39240    0.24480    1.000
    N4       N        0.93870    0.54510    0.16870    1.000
    C115     C        0.76960    0.46640    0.34920    1.000
    H82      H        0.78380    0.49740    0.33420    1.000
    C116     C        0.70240    0.41800    0.42620    1.000
    C117     C        0.55570    0.41720    0.43780    1.000
    C118     C        0.70010    0.41250    0.57790    1.000
    C119     C        0.55620    0.41870    0.58630    1.000
    C120     C        0.50230    0.42020    0.33380    1.000
    H83      H        0.48870    0.38750    0.30800    1.000
    H84      H        0.44430    0.43770    0.31640    1.000
    H85      H        0.53940    0.43740    0.31000    1.000
    C121     C        0.65190    0.41600    0.48190    1.000
    C122     C        0.72970    0.45470    0.78050    1.000
    H86      H        0.70950    0.48450    0.74870    1.000
    C123     C        0.92780    0.69790    0.13710    1.000
    C124     C        0.50740    0.41760    0.49070    1.000
    C125     C        0.35680    0.45960    0.43460    1.000
    H87      H        0.38910    0.48830    0.46370    1.000
    C126     C        0.50460    0.42270    0.64370    1.000
    H88      H        0.44140    0.41080    0.60800    1.000
    H89      H        0.53630    0.40320    0.69950    1.000
    H90      H        0.50300    0.45660    0.66040    1.000
    C127     C        0.26030    0.37820    0.34640    1.000
    H91      H        0.22800    0.34960    0.31660    1.000
    C128     C        0.40590    0.41870    0.44290    1.000
    C129     C        0.80440    0.40730    0.62440    1.000
    H92      H        0.82840    0.41820    0.58260    1.000
    H93      H        0.83120    0.42710    0.68020    1.000
    H94      H        0.82100    0.37330    0.64050    1.000
    C130     C        0.21270    0.42040    0.33780    1.000
    C131     C        0.70580    0.41230    0.73130    1.000
    C132     C        0.65180    0.41520    0.62970    1.000
    C133     C        0.79580    0.42540    0.32000    1.000
    C134     C        0.10990    0.42300    0.27650    1.000
    C135     C        0.72220    0.46220    0.40070    1.000
    H95      H        0.70280    0.49080    0.41900    1.000
    C136     C        0.81280    0.41090    0.92150    1.000
    C137     C        0.93100    0.64670    0.14590    1.000
    C138     C        0.35680    0.37730    0.39910    1.000
    H96      H        0.38910    0.34780    0.40510    1.000
    C139     C        0.73010    0.37850    0.39860    1.000
    H97      H        0.71670    0.34750    0.41440    1.000
    C140     C        0.78340    0.45530    0.87700    1.000
    H98      H        0.79880    0.48480    0.91030    1.000
    C141     C        0.73440    0.36980    0.77890    1.000
    H99      H        0.71680    0.34010    0.74640    1.000
    C142     C        0.88740    0.57320    0.19540    1.000
    H100     H        0.85270    0.55800    0.22150    1.000
    C143     C        0.00340    0.72490    0.14260    1.000
    H101     H        0.05610    0.70820    0.14650    1.000
    C144     C        0.78800    0.36880    0.87270    1.000
    H102     H        0.80770    0.33870    0.90350    1.000
    C145     C        0.84830    0.42940    0.26610    1.000
    C146     C        0.25970    0.46130    0.38450    1.000
    H103     H        0.22710    0.49010    0.38280    1.000
    C147     C        0.98460    0.56890    0.12880    1.000
    H104     H        0.02080    0.55030    0.10850    1.000
    C148     C        0.77840    0.38210    0.34690    1.000
    H105     H        0.79940    0.35340    0.33040    1.000
    C149     C        0.87230    0.41190    0.02390    1.000
    C150     C        0.98130    0.61780    0.11650    1.000
    H106     H        0.01400    0.63210    0.08740    1.000
    C151     C        0.85150    0.72470    0.12750    1.000
    H107     H        0.79780    0.70800    0.12080    1.000
    C152     C        0.88310    0.62270    0.18650    1.000
    H108     H        0.84730    0.64080    0.20800    1.000
    Zn11     Zn       0.02173    0.32527    0.15371    1.000
    O34      O        0.97050    0.27260    0.06420    1.000
    O35      O        0.93740    0.30940    0.21230    1.000
    O36      O        0.12370    0.27680    0.24290    1.000
    Zn12     Zn       0.94520    0.35036    0.19657    1.000
