# CIF file generated by openbabel 3.1.0, see https://openbabel.org
data_I
_chemical_name_common 'image0'
_cell_length_a 10.3349
_cell_length_b 11.8962
_cell_length_c 20.2894
_cell_angle_alpha 90
_cell_angle_beta 90
_cell_angle_gamma 90
_space_group_name_H-M_alt 'P 1'
_space_group_name_Hall 'P 1'
loop_
    _symmetry_equiv_pos_as_xyz
    x,y,z
loop_
    _atom_site_label
    _atom_site_type_symbol
    _atom_site_fract_x
    _atom_site_fract_y
    _atom_site_fract_z
    _atom_site_occupancy
    Zn1      Zn       0.14246    0.67650    0.99072    1.000
    Zn2      Zn       0.45562    0.58325    0.99026    1.000
    O1       O        0.17960    0.59800    0.90680    1.000
    O2       O        0.38480    0.54300    0.90360    1.000
    O3       O        0.12200    0.45470    0.57650    1.000
    O4       O        0.33250    0.41250    0.57300    1.000
    O5       O        0.11920    0.83800    0.00780    1.000
    O6       O        0.33960    0.73160    0.99120    1.000
    O7       O        0.45870    0.87530    0.02460    1.000
    C1       C        0.25880    0.52990    0.80570    1.000
    C2       C        0.24230    0.47350    0.67240    1.000
    C3       C        0.14850    0.53840    0.77350    1.000
    C4       C        0.37080    0.49730    0.77160    1.000
    H1       H        0.44960    0.49480    0.79370    1.000
    C5       C        0.13790    0.50820    0.70900    1.000
    H2       H        0.05700    0.51120    0.68890    1.000
    C6       C        0.36560    0.46850    0.70460    1.000
    H3       H        0.43970    0.44700    0.68180    1.000
    C7       C        0.27830    0.55860    0.87790    1.000
    C8       C        0.35300    0.82850    0.01350    1.000
    C9       C        0.22990    0.89340    0.03140    1.000
    H4       H        0.23400    0.96800    0.01100    1.000
    C10      C        0.23250    0.44390    0.60250    1.000
    N1       N        0.03200    0.57550    0.80220    1.000
    H5       H        0.04180    0.58020    0.84570    1.000
    H6       H        0.96910    0.52690    0.79290    1.000
    H7       H        0.01160    0.64280    0.78610    1.000
    C11      C        0.22400    0.90680    0.10680    1.000
    H8       H        0.13930    0.93200    0.11940    1.000
    H9       H        0.28720    0.96090    0.12070    1.000
    H10      H        0.24170    0.83570    0.12740    1.000
    Zn3      Zn       0.35754    0.32350    0.49072    1.000
    Zn4      Zn       0.04438    0.41675    0.49026    1.000
    O8       O        0.32040    0.40200    0.40680    1.000
    O9       O        0.11520    0.45700    0.40360    1.000
    O10      O        0.37800    0.54530    0.07650    1.000
    O11      O        0.16750    0.58750    0.07300    1.000
    O12      O        0.38080    0.16200    0.50780    1.000
    O13      O        0.16040    0.26840    0.49120    1.000
    O14      O        0.04130    0.12470    0.52460    1.000
    C12      C        0.24120    0.47010    0.30570    1.000
    C13      C        0.25770    0.52650    0.17240    1.000
    C14      C        0.35150    0.46160    0.27350    1.000
    C15      C        0.12920    0.50270    0.27160    1.000
    H11      H        0.05040    0.50520    0.29370    1.000
    C16      C        0.36210    0.49180    0.20900    1.000
    H12      H        0.44300    0.48880    0.18890    1.000
    C17      C        0.13440    0.53150    0.20460    1.000
    H13      H        0.06030    0.55300    0.18180    1.000
    C18      C        0.22170    0.44140    0.37790    1.000
    C19      C        0.14700    0.17150    0.51350    1.000
    C20      C        0.27010    0.10660    0.53140    1.000
    H14      H        0.26600    0.03200    0.51100    1.000
    C21      C        0.26750    0.55610    0.10250    1.000
    N2       N        0.46800    0.42450    0.30220    1.000
    H15      H        0.45820    0.41980    0.34570    1.000
    H16      H        0.53090    0.47310    0.29290    1.000
    H17      H        0.48840    0.35720    0.28610    1.000
    C22      C        0.27600    0.09320    0.60680    1.000
    H18      H        0.36070    0.06800    0.61940    1.000
    H19      H        0.21280    0.03910    0.62070    1.000
    H20      H        0.25830    0.16430    0.62740    1.000
    Zn5      Zn       0.85754    0.17650    0.50928    1.000
    Zn6      Zn       0.54438    0.08325    0.50974    1.000
    O15      O        0.82040    0.09800    0.59320    1.000
    O16      O        0.61520    0.04300    0.59640    1.000
    O17      O        0.87800    0.95470    0.92350    1.000
    O18      O        0.66750    0.91250    0.92700    1.000
    O19      O        0.88080    0.33800    0.49220    1.000
    O20      O        0.66040    0.23160    0.50880    1.000
    O21      O        0.54130    0.37530    0.47540    1.000
    C23      C        0.74120    0.02990    0.69430    1.000
    C24      C        0.75770    0.97350    0.82760    1.000
    C25      C        0.85150    0.03840    0.72650    1.000
    C26      C        0.62920    0.99730    0.72840    1.000
    H21      H        0.55040    0.99480    0.70630    1.000
    C27      C        0.86210    0.00820    0.79100    1.000
    H22      H        0.94300    0.01120    0.81110    1.000
    C28      C        0.63440    0.96850    0.79540    1.000
    H23      H        0.56030    0.94700    0.81820    1.000
    C29      C        0.72170    0.05860    0.62210    1.000
    C30      C        0.64700    0.32850    0.48650    1.000
    C31      C        0.77010    0.39340    0.46860    1.000
    H24      H        0.76600    0.46800    0.48900    1.000
    C32      C        0.76750    0.94390    0.89750    1.000
    N3       N        0.96800    0.07550    0.69780    1.000
    H25      H        0.95820    0.08020    0.65430    1.000
    H26      H        0.03090    0.02690    0.70710    1.000
    H27      H        0.98840    0.14280    0.71390    1.000
    C33      C        0.77600    0.40680    0.39320    1.000
    H28      H        0.86070    0.43200    0.38060    1.000
    H29      H        0.71280    0.46090    0.37930    1.000
    H30      H        0.75830    0.33570    0.37260    1.000
    Zn7      Zn       0.64246    0.82350    0.00928    1.000
    Zn8      Zn       0.95562    0.91675    0.00974    1.000
    O22      O        0.67960    0.90200    0.09320    1.000
    O23      O        0.88480    0.95700    0.09640    1.000
    O24      O        0.62200    0.04530    0.42350    1.000
    O25      O        0.83250    0.08750    0.42700    1.000
    O26      O        0.61920    0.66200    0.99220    1.000
    O27      O        0.83960    0.76840    0.00880    1.000
    O28      O        0.95870    0.62470    0.97540    1.000
    C34      C        0.75880    0.97010    0.19430    1.000
    C35      C        0.74230    0.02650    0.32760    1.000
    C36      C        0.64850    0.96160    0.22650    1.000
    C37      C        0.87080    0.00270    0.22840    1.000
    H31      H        0.94960    0.00520    0.20630    1.000
    C38      C        0.63790    0.99180    0.29100    1.000
    H32      H        0.55700    0.98880    0.31110    1.000
    C39      C        0.86560    0.03150    0.29540    1.000
    H33      H        0.93970    0.05300    0.31820    1.000
    C40      C        0.77830    0.94140    0.12210    1.000
    C41      C        0.85300    0.67150    0.98650    1.000
    C42      C        0.72990    0.60660    0.96860    1.000
    H34      H        0.73400    0.53200    0.98900    1.000
    C43      C        0.73250    0.05610    0.39750    1.000
    N4       N        0.53200    0.92450    0.19780    1.000
    H35      H        0.54180    0.91980    0.15430    1.000
    H36      H        0.46910    0.97310    0.20710    1.000
    H37      H        0.51160    0.85720    0.21390    1.000
    C44      C        0.72400    0.59320    0.89320    1.000
    H38      H        0.63930    0.56800    0.88060    1.000
    H39      H        0.78720    0.53910    0.87930    1.000
    H40      H        0.74170    0.66430    0.87260    1.000
