# CIF file generated by openbabel 3.1.0, see https://openbabel.org
data_I
_chemical_name_common 'TAQGEZ_clean'
_cell_length_a 7.6111
_cell_length_b 14.2391
_cell_length_c 14.2391
_cell_angle_alpha 61.5578
_cell_angle_beta 74.4986
_cell_angle_gamma 74.4986
_space_group_name_H-M_alt 'P 1'
_space_group_name_Hall 'P 1'
loop_
    _symmetry_equiv_pos_as_xyz
    x,y,z
loop_
    _atom_site_label
    _atom_site_type_symbol
    _atom_site_fract_x
    _atom_site_fract_y
    _atom_site_fract_z
    _atom_site_occupancy
    Cd1      Cd       0.50000    0.00000    0.00000    1.000
    Cd2      Cd       0.00000    0.00000    0.00000    1.000
    H1       H        0.30710    0.41650    0.99810    1.000
    H2       H        0.19290    0.00190    0.58350    1.000
    H3       H        0.22170    0.58350    0.00190    1.000
    H4       H        0.27830    0.99810    0.41650    1.000
    H5       H        0.69290    0.58350    0.00190    1.000
    H6       H        0.80710    0.99810    0.41650    1.000
    H7       H        0.77830    0.41650    0.99810    1.000
    H8       H        0.72170    0.00190    0.58350    1.000
    C1       C        0.18130    0.45040    0.99880    1.000
    C2       C        0.31870    0.00120    0.54960    1.000
    C3       C        0.13050    0.54960    0.00120    1.000
    C4       C        0.36950    0.99880    0.45040    1.000
    C5       C        0.81870    0.54960    0.00120    1.000
    C6       C        0.68130    0.99880    0.45040    1.000
    C7       C        0.86950    0.45040    0.99880    1.000
    C8       C        0.63050    0.00120    0.54960    1.000
    C9       C        0.10620    0.29040    0.99720    1.000
    C10      C        0.05160    0.39970    0.99710    1.000
    C11      C        0.39380    0.00280    0.70960    1.000
    C12      C        0.44840    0.00290    0.60030    1.000
    C13      C        0.89380    0.70960    0.00280    1.000
    C14      C        0.94840    0.60030    0.00290    1.000
    C15      C        0.60620    0.99720    0.29040    1.000
    C16      C        0.55160    0.99710    0.39970    1.000
    N1       N        0.26573    0.14597    0.99597    1.000
    N2       N        0.27805    0.23665    0.99805    1.000
    N3       N        0.23427    0.00403    0.85403    1.000
    N4       N        0.22195    0.00195    0.76335    1.000
    N5       N        0.90767    0.85403    0.00403    1.000
    N6       N        0.01275    0.76335    0.00195    1.000
    N7       N        0.59233    0.99597    0.14597    1.000
    N8       N        0.48725    0.99805    0.23665    1.000
    N9       N        0.73427    0.85403    0.00403    1.000
    N10      N        0.72195    0.76335    0.00195    1.000
    N11      N        0.76573    0.99597    0.14597    1.000
    N12      N        0.77805    0.99805    0.23665    1.000
    N13      N        0.09233    0.14597    0.99597    1.000
    N14      N        0.98725    0.23665    0.99805    1.000
    N15      N        0.40767    0.00403    0.85403    1.000
    N16      N        0.51275    0.00195    0.76335    1.000
    Cl1      Cl       0.25000    0.87655    0.12345    1.000
    Cl2      Cl       0.75000    0.12345    0.87655    1.000
