# CIF file generated by openbabel 3.1.0, see https://openbabel.org
data_I
_chemical_name_common 'image0'
_cell_length_a 6.87
_cell_length_b 13.86
_cell_length_c 17.71
_cell_angle_alpha 88.64
_cell_angle_beta 79.67
_cell_angle_gamma 84.36
_space_group_name_H-M_alt 'P 1'
_space_group_name_Hall 'P 1'
loop_
    _symmetry_equiv_pos_as_xyz
    x,y,z
loop_
    _atom_site_label
    _atom_site_type_symbol
    _atom_site_fract_x
    _atom_site_fract_y
    _atom_site_fract_z
    _atom_site_occupancy
    Sm1      Sm       0.70389    0.63421    0.45206    1.000
    Sm2      Sm       0.33133    0.36795    0.94717    1.000
    O1       O        0.06030    0.25890    0.96270    1.000
    O2       O        0.35300    0.18840    0.97050    1.000
    O3       O        0.97030    0.74040    0.46850    1.000
    O4       O        0.66320    0.80830    0.49230    1.000
    O5       O        0.42030    0.61520    0.55020    1.000
    O6       O        0.39010    0.48670    0.62520    1.000
    O7       O        0.45600    0.51470    0.90340    1.000
    O8       O        0.48990    0.65830    0.94680    1.000
    O9       O        0.87200    0.55100    0.95400    1.000
    O10      O        0.07350    0.44460    0.88110    1.000
    O11      O        0.98530    0.44750    0.60330    1.000
    O12      O        0.81580    0.57790    0.56210    1.000
    N1       N        0.32600    0.10760    0.71570    1.000
    N2       N        0.80000    0.04750    0.75870    1.000
    C1       C        0.40500    0.57580    0.61520    1.000
    C2       C        0.45700    0.60360    0.89600    1.000
    C3       C        0.38800    0.73820    0.67900    1.000
    H1       H        0.38230    0.76740    0.63150    1.000
    C4       C        0.08400    0.08850    0.98730    1.000
    C5       C        0.87000    0.08460    0.50340    1.000
    H2       H        0.78390    0.14090    0.50510    1.000
    C6       C        0.88400    0.73600    0.75590    1.000
    C7       C        0.38000    0.79610    0.74240    1.000
    C8       C        0.80200    0.99440    0.49820    1.000
    H3       H        0.66800    0.99080    0.49760    1.000
    C9       C        0.91000    0.68180    0.82010    1.000
    H4       H        0.90820    0.71340    0.86600    1.000
    C10      C        0.96900    0.52340    0.88840    1.000
    C11      C        0.42100    0.64810    0.81930    1.000
    C12      C        0.85900    0.84300    0.75850    1.000
    C13      C        0.92600    0.91100    0.49400    1.000
    C14      C        0.39800    0.75130    0.81360    1.000
    H5       H        0.39510    0.78890    0.85670    1.000
    C15      C        0.91000    0.58520    0.68490    1.000
    C16      C        0.44100    0.94790    0.66530    1.000
    H6       H        0.50530    0.91040    0.62360    1.000
    C17      C        0.27200    0.96150    0.79270    1.000
    H7       H        0.21980    0.93450    0.83960    1.000
    C18      C        0.36700    0.90220    0.73500    1.000
    C19      C        0.40600    0.63620    0.68460    1.000
    C20      C        0.42100    0.04610    0.65840    1.000
    H8       H        0.47490    0.07330    0.61170    1.000
    C21      C        0.88500    0.68640    0.68660    1.000
    H9       H        0.86790    0.72120    0.64240    1.000
    C22      C        0.90700    0.53340    0.60980    1.000
    C23      C        0.94900    0.53150    0.74850    1.000
    H10      H        0.98080    0.46470    0.74520    1.000
    C24      C        0.76400    0.89320    0.82460    1.000
    H11      H        0.72160    0.86010    0.86990    1.000
    C25      C        0.87500    0.08580    0.99630    1.000
    H12      H        0.79140    0.14220    0.99380    1.000
    C26      C        0.17000    0.18500    0.97170    1.000
    C27      C        0.20000    0.00460    0.99090    1.000
    H13      H        0.33700    0.00700    0.98460    1.000
    C28      C        0.93900    0.58040    0.81840    1.000
    C29      C        0.84700    0.81390    0.48360    1.000
    C30      C        0.89300    0.99950    0.69840    1.000
    H14      H        0.94250    0.03490    0.65520    1.000
    C31      C        0.42100    0.59230    0.75610    1.000
    H15      H        0.43110    0.52510    0.76070    1.000
    C32      C        0.92200    0.89780    0.69420    1.000
    H16      H        0.98410    0.86770    0.64860    1.000
    C33      C        0.25100    0.06580    0.78310    1.000
    H17      H        0.18600    0.10460    0.82380    1.000
    C34      C        0.73500    0.99370    0.82120    1.000
    H18      H        0.66580    0.02620    0.86470    1.000
    O13      O        0.91800    0.57800    0.94900    1.000
    Sm3      Sm       0.29611    0.36579    0.54794    1.000
    Sm4      Sm       0.66867    0.63205    0.05283    1.000
    O14      O        0.93970    0.74110    0.03730    1.000
    O15      O        0.64700    0.81160    0.02950    1.000
    O16      O        0.02970    0.25960    0.53150    1.000
    O17      O        0.33680    0.19170    0.50770    1.000
    O18      O        0.57970    0.38480    0.44980    1.000
    O19      O        0.60990    0.51330    0.37480    1.000
    O20      O        0.54400    0.48530    0.09660    1.000
    O21      O        0.51010    0.34170    0.05320    1.000
    O22      O        0.12800    0.44900    0.04600    1.000
    O23      O        0.92650    0.55540    0.11890    1.000
    O24      O        0.01470    0.55250    0.39670    1.000
    O25      O        0.18420    0.42210    0.43790    1.000
    N3       N        0.67400    0.89240    0.28430    1.000
    N4       N        0.20000    0.95250    0.24130    1.000
    C35      C        0.59500    0.42420    0.38480    1.000
    C36      C        0.54300    0.39640    0.10400    1.000
    C37      C        0.61200    0.26180    0.32100    1.000
    H19      H        0.61770    0.23260    0.36850    1.000
    C38      C        0.91600    0.91150    0.01270    1.000
    C39      C        0.13000    0.91540    0.49660    1.000
    H20      H        0.21610    0.85910    0.49490    1.000
    C40      C        0.11600    0.26400    0.24410    1.000
    C41      C        0.62000    0.20390    0.25760    1.000
    C42      C        0.19800    0.00560    0.50180    1.000
    H21      H        0.33200    0.00920    0.50240    1.000
    C43      C        0.09000    0.31820    0.17990    1.000
    H22      H        0.09180    0.28660    0.13400    1.000
    C44      C        0.03100    0.47660    0.11160    1.000
    C45      C        0.57900    0.35190    0.18070    1.000
    C46      C        0.14100    0.15700    0.24150    1.000
    C47      C        0.07400    0.08900    0.50600    1.000
    C48      C        0.60200    0.24870    0.18640    1.000
    H23      H        0.60490    0.21110    0.14330    1.000
    C49      C        0.09000    0.41480    0.31510    1.000
    C50      C        0.55900    0.05210    0.33470    1.000
    H24      H        0.49470    0.08960    0.37640    1.000
    C51      C        0.72800    0.03850    0.20730    1.000
    H25      H        0.78020    0.06550    0.16040    1.000
    C52      C        0.63300    0.09780    0.26500    1.000
    C53      C        0.59400    0.36380    0.31540    1.000
    C54      C        0.57900    0.95390    0.34160    1.000
    H26      H        0.52510    0.92670    0.38830    1.000
    C55      C        0.11500    0.31360    0.31340    1.000
    H27      H        0.13210    0.27880    0.35760    1.000
    C56      C        0.09300    0.46660    0.39020    1.000
    C57      C        0.05100    0.46850    0.25150    1.000
    H28      H        0.01920    0.53530    0.25480    1.000
    C58      C        0.23600    0.10680    0.17540    1.000
    H29      H        0.27840    0.13990    0.13010    1.000
    C59      C        0.12500    0.91420    0.00370    1.000
    H30      H        0.20860    0.85780    0.00620    1.000
    C60      C        0.83000    0.81500    0.02830    1.000
    C61      C        0.80000    0.99540    0.00910    1.000
    H31      H        0.66300    0.99300    0.01540    1.000
    C62      C        0.06100    0.41960    0.18160    1.000
    C63      C        0.15300    0.18610    0.51640    1.000
    C64      C        0.10700    0.00050    0.30160    1.000
    H32      H        0.05750    0.96510    0.34480    1.000
    C65      C        0.57900    0.40770    0.24390    1.000
    H33      H        0.56890    0.47490    0.23930    1.000
    C66      C        0.07800    0.10220    0.30580    1.000
    H34      H        0.01590    0.13230    0.35140    1.000
    C67      C        0.74900    0.93420    0.21690    1.000
    H35      H        0.81400    0.89540    0.17620    1.000
    C68      C        0.26500    0.00630    0.17880    1.000
    H36      H        0.33420    0.97380    0.13530    1.000
    O26      O        0.08200    0.42200    0.05100    1.000
