# CIF file generated by openbabel 3.1.0, see https://openbabel.org
data_I
_chemical_name_common 'image0'
_cell_length_a 10.0483
_cell_length_b 13.4969
_cell_length_c 16.7346
_cell_angle_alpha 90
_cell_angle_beta 93.683
_cell_angle_gamma 90
_space_group_name_H-M_alt 'P 1'
_space_group_name_Hall 'P 1'
loop_
    _symmetry_equiv_pos_as_xyz
    x,y,z
loop_
    _atom_site_label
    _atom_site_type_symbol
    _atom_site_fract_x
    _atom_site_fract_y
    _atom_site_fract_z
    _atom_site_occupancy
    S1       S        0.29854    0.55461    0.25008    1.000
    S2       S        0.77207    0.25203    0.29480    1.000
    Mg1      Mg       0.40775    0.34378    0.02570    1.000
    Mg2      Mg       0.52930    0.10289    0.05125    1.000
    O1       O        0.38640    0.46066    0.10148    1.000
    O2       O        0.92062    0.29501    0.45628    1.000
    O3       O        0.62260    0.15887    0.15495    1.000
    O4       O        0.93307    0.45451    0.43882    1.000
    O5       O        0.14369    0.60059    0.39329    1.000
    O6       O        0.19900    0.76129    0.39861    1.000
    O7       O        0.48450    0.59248    0.05543    1.000
    C1       C        0.19920    0.67740    0.36814    1.000
    C2       C        0.27190    0.66760    0.29343    1.000
    C3       C        0.37090    0.60942    0.17139    1.000
    C4       C        0.41820    0.54935    0.10365    1.000
    O8       O        0.57700    0.29680    0.08853    1.000
    C5       C        0.62300    0.25110    0.14897    1.000
    C6       C        0.68420    0.30970    0.21697    1.000
    C7       C        0.81140    0.36394    0.33909    1.000
    C8       C        0.89140    0.37013    0.41520    1.000
    C9       C        0.31610    0.74270    0.24855    1.000
    H1       H        0.31020    0.80920    0.26260    1.000
    C10      C        0.37200    0.70930    0.17833    1.000
    H2       H        0.40610    0.75150    0.14070    1.000
    C11      C        0.68330    0.40930    0.22533    1.000
    H3       H        0.63890    0.45200    0.18900    1.000
    C12      C        0.75680    0.44130    0.29501    1.000
    H4       H        0.76720    0.50750    0.30960    1.000
    S3       S        0.20146    0.05461    0.24992    1.000
    S4       S        0.72793    0.75203    0.20520    1.000
    Mg3      Mg       0.09225    0.84378    0.47430    1.000
    Mg4      Mg       0.97070    0.60289    0.44875    1.000
    O9       O        0.11360    0.96066    0.39852    1.000
    O10      O        0.57938    0.79501    0.04372    1.000
    O11      O        0.87740    0.65887    0.34505    1.000
    O12      O        0.56693    0.95451    0.06118    1.000
    O13      O        0.35631    0.10059    0.10671    1.000
    O14      O        0.30100    0.26129    0.10139    1.000
    O15      O        0.01550    0.09248    0.44457    1.000
    C13      C        0.30080    0.17740    0.13186    1.000
    C14      C        0.22810    0.16760    0.20657    1.000
    C15      C        0.12910    0.10942    0.32861    1.000
    C16      C        0.08180    0.04935    0.39635    1.000
    O16      O        0.92300    0.79680    0.41147    1.000
    C17      C        0.87700    0.75110    0.35103    1.000
    C18      C        0.81580    0.80970    0.28303    1.000
    C19      C        0.68860    0.86394    0.16091    1.000
    C20      C        0.60860    0.87013    0.08480    1.000
    C21      C        0.18390    0.24270    0.25145    1.000
    H5       H        0.18980    0.30920    0.23740    1.000
    C22      C        0.12800    0.20930    0.32167    1.000
    H6       H        0.09390    0.25150    0.35930    1.000
    C23      C        0.81670    0.90930    0.27467    1.000
    H7       H        0.86110    0.95200    0.31100    1.000
    C24      C        0.74320    0.94130    0.20499    1.000
    H8       H        0.73280    0.00750    0.19040    1.000
    S5       S        0.70146    0.44539    0.74992    1.000
    S6       S        0.22793    0.74797    0.70520    1.000
    Mg5      Mg       0.59225    0.65622    0.97430    1.000
    Mg6      Mg       0.47070    0.89711    0.94875    1.000
    O17      O        0.61360    0.53934    0.89852    1.000
    O18      O        0.07938    0.70499    0.54372    1.000
    O19      O        0.37740    0.84113    0.84505    1.000
    O20      O        0.06693    0.54549    0.56118    1.000
    O21      O        0.85631    0.39941    0.60671    1.000
    O22      O        0.80100    0.23871    0.60139    1.000
    O23      O        0.51550    0.40752    0.94457    1.000
    C25      C        0.80080    0.32260    0.63186    1.000
    C26      C        0.72810    0.33240    0.70657    1.000
    C27      C        0.62910    0.39058    0.82861    1.000
    C28      C        0.58180    0.45065    0.89635    1.000
    O24      O        0.42300    0.70320    0.91147    1.000
    C29      C        0.37700    0.74890    0.85103    1.000
    C30      C        0.31580    0.69030    0.78303    1.000
    C31      C        0.18860    0.63606    0.66091    1.000
    C32      C        0.10860    0.62987    0.58480    1.000
    C33      C        0.68390    0.25730    0.75145    1.000
    H9       H        0.68980    0.19080    0.73740    1.000
    C34      C        0.62800    0.29070    0.82167    1.000
    H10      H        0.59390    0.24850    0.85930    1.000
    C35      C        0.31670    0.59070    0.77467    1.000
    H11      H        0.36110    0.54800    0.81100    1.000
    C36      C        0.24320    0.55870    0.70499    1.000
    H12      H        0.23280    0.49250    0.69040    1.000
    S7       S        0.79854    0.94539    0.75008    1.000
    S8       S        0.27207    0.24797    0.79480    1.000
    Mg7      Mg       0.90775    0.15622    0.52570    1.000
    Mg8      Mg       0.02930    0.39711    0.55125    1.000
    O25      O        0.88640    0.03934    0.60148    1.000
    O26      O        0.42062    0.20499    0.95628    1.000
    O27      O        0.12260    0.34113    0.65495    1.000
    O28      O        0.43307    0.04549    0.93882    1.000
    O29      O        0.64369    0.89941    0.89329    1.000
    O30      O        0.69900    0.73871    0.89861    1.000
    O31      O        0.98450    0.90752    0.55543    1.000
    C37      C        0.69920    0.82260    0.86814    1.000
    C38      C        0.77190    0.83240    0.79343    1.000
    C39      C        0.87090    0.89058    0.67139    1.000
    C40      C        0.91820    0.95065    0.60365    1.000
    O32      O        0.07700    0.20320    0.58853    1.000
    C41      C        0.12300    0.24890    0.64897    1.000
    C42      C        0.18420    0.19030    0.71697    1.000
    C43      C        0.31140    0.13606    0.83909    1.000
    C44      C        0.39140    0.12987    0.91520    1.000
    C45      C        0.81610    0.75730    0.74855    1.000
    H13      H        0.81020    0.69080    0.76260    1.000
    C46      C        0.87200    0.79070    0.67833    1.000
    H14      H        0.90610    0.74850    0.64070    1.000
    C47      C        0.18330    0.09070    0.72533    1.000
    H15      H        0.13890    0.04800    0.68900    1.000
    C48      C        0.25680    0.05870    0.79501    1.000
    H16      H        0.26720    0.99250    0.80960    1.000
