# CIF file generated by openbabel 3.1.0, see https://openbabel.org
data_I
_chemical_name_common 'image0'
_cell_length_a 24.495
_cell_length_b 27.929
_cell_length_c 22.13
_cell_angle_alpha 90
_cell_angle_beta 90
_cell_angle_gamma 90
_space_group_name_H-M_alt 'P 1'
_space_group_name_Hall 'P 1'
loop_
    _symmetry_equiv_pos_as_xyz
    x,y,z
loop_
    _atom_site_label
    _atom_site_type_symbol
    _atom_site_fract_x
    _atom_site_fract_y
    _atom_site_fract_z
    _atom_site_occupancy
    Cu1      Cu       0.74360    0.53125    0.54606    1.000
    Cu2      Cu       0.46169    0.24470    0.54127    1.000
    C1       C        0.40340    0.50940    0.96780    1.000
    C2       C        0.37080    0.54950    0.95820    1.000
    C3       C        0.37140    0.57250    0.90250    1.000
    C4       C        0.40470    0.55540    0.85640    1.000
    C5       C        0.43730    0.51540    0.86590    1.000
    C6       C        0.43660    0.49240    0.92160    1.000
    C7       C        0.46800    0.45110    0.93260    1.000
    C8       C        0.50020    0.43150    0.88720    1.000
    C9       C        0.50340    0.45530    0.83290    1.000
    C10      C        0.47130    0.49560    0.82130    1.000
    C11      C        0.93910    0.48350    0.97260    1.000
    C12      C        0.90500    0.44440    0.96380    1.000
    C13      C        0.90200    0.42280    0.90730    1.000
    C14      C        0.93310    0.44040    0.85960    1.000
    C15      C        0.96710    0.47960    0.86850    1.000
    C16      C        0.97010    0.50110    0.92500    1.000
    C17      C        0.99260    0.46240    0.93720    1.000
    C18      C        0.95950    0.44360    0.89200    1.000
    C19      C        0.96430    0.46300    0.83390    1.000
    C20      C        0.57710    0.41140    0.67120    1.000
    C21      C        0.61790    0.43500    0.63950    1.000
    H1       H        0.63350    0.46350    0.65530    1.000
    C22      C        0.63610    0.41690    0.58450    1.000
    C23      C        0.61330    0.37520    0.56130    1.000
    H2       H        0.62570    0.36280    0.52370    1.000
    C24      C        0.57250    0.35150    0.59310    1.000
    C25      C        0.55430    0.36960    0.64810    1.000
    H3       H        0.52640    0.35350    0.66980    1.000
    C26      C        0.54620    0.30900    0.56630    1.000
    C27      C        0.67660    0.44630    0.55250    1.000
    C28      C        0.82070    0.45390    0.55670    1.000
    C29      C        0.94970    0.31890    0.55260    1.000
    C30      C        0.90720    0.40020    0.67870    1.000
    C31      C        0.87030    0.43020    0.64980    1.000
    H4       H        0.85330    0.45550    0.67150    1.000
    C32      C        0.85820    0.42330    0.58910    1.000
    C33      C        0.88300    0.38630    0.55730    1.000
    H5       H        0.87480    0.38150    0.51580    1.000
    C34      C        0.92000    0.35630    0.58620    1.000
    C35      C        0.93200    0.36320    0.64700    1.000
    H6       H        0.95730    0.34270    0.66680    1.000
    C36      C        0.53470    0.43770    0.78290    1.000
    C37      C        0.55840    0.42960    0.72770    1.000
    C38      C        0.92240    0.42420    0.79940    1.000
    C39      C        0.91980    0.40770    0.74140    1.000
    O1       O        0.50530    0.28930    0.59190    1.000
    O2       O        0.56740    0.29310    0.51680    1.000
    O3       O        0.69740    0.48380    0.57890    1.000
    O4       O        0.68720    0.43610    0.49600    1.000
    O5       O        0.80800    0.49510    0.57760    1.000
    O6       O        0.80250    0.43800    0.50620    1.000
    O7       O        0.99260    0.30080    0.57520    1.000
    O8       O        0.93280    0.30510    0.50000    1.000
    O9       O        0.34350    0.56700    0.00650    1.000
    O10      O        0.87500    0.42800    0.01100    1.000
    Cu3      Cu       0.24360    0.03125    0.54606    1.000
    Cu4      Cu       0.96169    0.74470    0.54127    1.000
    C40      C        0.90340    0.00940    0.96780    1.000
    C41      C        0.87080    0.04950    0.95820    1.000
    C42      C        0.87140    0.07250    0.90250    1.000
    C43      C        0.90470    0.05540    0.85640    1.000
    C44      C        0.93730    0.01540    0.86590    1.000
    C45      C        0.93660    0.99240    0.92160    1.000
    C46      C        0.96800    0.95110    0.93260    1.000
    C47      C        0.00020    0.93150    0.88720    1.000
    C48      C        0.00340    0.95530    0.83290    1.000
    C49      C        0.97130    0.99560    0.82130    1.000
    C50      C        0.43910    0.98350    0.97260    1.000
    C51      C        0.40500    0.94440    0.96380    1.000
    C52      C        0.40200    0.92280    0.90730    1.000
    C53      C        0.43310    0.94040    0.85960    1.000
    C54      C        0.46710    0.97960    0.86850    1.000
    C55      C        0.47010    0.00110    0.92500    1.000
    C56      C        0.49260    0.96240    0.93720    1.000
    C57      C        0.45950    0.94360    0.89200    1.000
    C58      C        0.46430    0.96300    0.83390    1.000
    C59      C        0.07710    0.91140    0.67120    1.000
    C60      C        0.11790    0.93500    0.63950    1.000
    H7       H        0.13350    0.96350    0.65530    1.000
    C61      C        0.13610    0.91690    0.58450    1.000
    C62      C        0.11330    0.87520    0.56130    1.000
    H8       H        0.12570    0.86280    0.52370    1.000
    C63      C        0.07250    0.85150    0.59310    1.000
    C64      C        0.05430    0.86960    0.64810    1.000
    H9       H        0.02640    0.85350    0.66980    1.000
    C65      C        0.04620    0.80900    0.56630    1.000
    C66      C        0.17660    0.94630    0.55250    1.000
    C67      C        0.32070    0.95390    0.55670    1.000
    C68      C        0.44970    0.81890    0.55260    1.000
    C69      C        0.40720    0.90020    0.67870    1.000
    C70      C        0.37030    0.93020    0.64980    1.000
    H10      H        0.35330    0.95550    0.67150    1.000
    C71      C        0.35820    0.92330    0.58910    1.000
    C72      C        0.38300    0.88630    0.55730    1.000
    H11      H        0.37480    0.88150    0.51580    1.000
    C73      C        0.42000    0.85630    0.58620    1.000
    C74      C        0.43200    0.86320    0.64700    1.000
    H12      H        0.45730    0.84270    0.66680    1.000
    C75      C        0.03470    0.93770    0.78290    1.000
    C76      C        0.05840    0.92960    0.72770    1.000
    C77      C        0.42240    0.92420    0.79940    1.000
    C78      C        0.41980    0.90770    0.74140    1.000
    O11      O        0.00530    0.78930    0.59190    1.000
    O12      O        0.06740    0.79310    0.51680    1.000
    O13      O        0.19740    0.98380    0.57890    1.000
    O14      O        0.18720    0.93610    0.49600    1.000
    O15      O        0.30800    0.99510    0.57760    1.000
    O16      O        0.30250    0.93800    0.50620    1.000
    O17      O        0.49260    0.80080    0.57520    1.000
    O18      O        0.43280    0.80510    0.50000    1.000
    O19      O        0.84350    0.06700    0.00650    1.000
    O20      O        0.37500    0.92800    0.01100    1.000
    Cu5      Cu       0.25640    0.46875    0.54606    1.000
    Cu6      Cu       0.53831    0.75530    0.54127    1.000
    C79      C        0.59660    0.49060    0.96780    1.000
    C80      C        0.62920    0.45050    0.95820    1.000
    C81      C        0.62860    0.42750    0.90250    1.000
    C82      C        0.59530    0.44460    0.85640    1.000
    C83      C        0.56270    0.48460    0.86590    1.000
    C84      C        0.56340    0.50760    0.92160    1.000
    C85      C        0.53200    0.54890    0.93260    1.000
    C86      C        0.49980    0.56850    0.88720    1.000
    C87      C        0.49660    0.54470    0.83290    1.000
    C88      C        0.52870    0.50440    0.82130    1.000
    C89      C        0.06090    0.51650    0.97260    1.000
    C90      C        0.09500    0.55560    0.96380    1.000
    C91      C        0.09800    0.57720    0.90730    1.000
    C92      C        0.06690    0.55960    0.85960    1.000
    C93      C        0.03290    0.52040    0.86850    1.000
    C94      C        0.02990    0.49890    0.92500    1.000
    C95      C        0.00740    0.53760    0.93720    1.000
    C96      C        0.04050    0.55640    0.89200    1.000
    C97      C        0.03570    0.53700    0.83390    1.000
    C98      C        0.42290    0.58860    0.67120    1.000
    C99      C        0.38210    0.56500    0.63950    1.000
    H13      H        0.36650    0.53650    0.65530    1.000
    C100     C        0.36390    0.58310    0.58450    1.000
    C101     C        0.38670    0.62480    0.56130    1.000
    H14      H        0.37430    0.63720    0.52370    1.000
    C102     C        0.42750    0.64850    0.59310    1.000
    C103     C        0.44570    0.63040    0.64810    1.000
    H15      H        0.47360    0.64650    0.66980    1.000
    C104     C        0.45380    0.69100    0.56630    1.000
    C105     C        0.32340    0.55370    0.55250    1.000
    C106     C        0.17930    0.54610    0.55670    1.000
    C107     C        0.05030    0.68110    0.55260    1.000
    C108     C        0.09280    0.59980    0.67870    1.000
    C109     C        0.12970    0.56980    0.64980    1.000
    H16      H        0.14670    0.54450    0.67150    1.000
    C110     C        0.14180    0.57670    0.58910    1.000
    C111     C        0.11700    0.61370    0.55730    1.000
    H17      H        0.12520    0.61850    0.51580    1.000
    C112     C        0.08000    0.64370    0.58620    1.000
    C113     C        0.06800    0.63680    0.64700    1.000
    H18      H        0.04270    0.65730    0.66680    1.000
    C114     C        0.46530    0.56230    0.78290    1.000
    C115     C        0.44160    0.57040    0.72770    1.000
    C116     C        0.07760    0.57580    0.79940    1.000
    C117     C        0.08020    0.59230    0.74140    1.000
    O21      O        0.49470    0.71070    0.59190    1.000
    O22      O        0.43260    0.70690    0.51680    1.000
    O23      O        0.30260    0.51620    0.57890    1.000
    O24      O        0.31280    0.56390    0.49600    1.000
    O25      O        0.19200    0.50490    0.57760    1.000
    O26      O        0.19750    0.56200    0.50620    1.000
    O27      O        0.00740    0.69920    0.57520    1.000
    O28      O        0.06720    0.69490    0.50000    1.000
    O29      O        0.65650    0.43300    0.00650    1.000
    O30      O        0.12500    0.57200    0.01100    1.000
    Cu7      Cu       0.75640    0.96875    0.54606    1.000
    Cu8      Cu       0.03831    0.25530    0.54127    1.000
    C118     C        0.09660    0.99060    0.96780    1.000
    C119     C        0.12920    0.95050    0.95820    1.000
    C120     C        0.12860    0.92750    0.90250    1.000
    C121     C        0.09530    0.94460    0.85640    1.000
    C122     C        0.06270    0.98460    0.86590    1.000
    C123     C        0.06340    0.00760    0.92160    1.000
    C124     C        0.03200    0.04890    0.93260    1.000
    C125     C        0.99980    0.06850    0.88720    1.000
    C126     C        0.99660    0.04470    0.83290    1.000
    C127     C        0.02870    0.00440    0.82130    1.000
    C128     C        0.56090    0.01650    0.97260    1.000
    C129     C        0.59500    0.05560    0.96380    1.000
    C130     C        0.59800    0.07720    0.90730    1.000
    C131     C        0.56690    0.05960    0.85960    1.000
    C132     C        0.53290    0.02040    0.86850    1.000
    C133     C        0.52990    0.99890    0.92500    1.000
    C134     C        0.50740    0.03760    0.93720    1.000
    C135     C        0.54050    0.05640    0.89200    1.000
    C136     C        0.53570    0.03700    0.83390    1.000
    C137     C        0.92290    0.08860    0.67120    1.000
    C138     C        0.88210    0.06500    0.63950    1.000
    H19      H        0.86650    0.03650    0.65530    1.000
    C139     C        0.86390    0.08310    0.58450    1.000
    C140     C        0.88670    0.12480    0.56130    1.000
    H20      H        0.87430    0.13720    0.52370    1.000
    C141     C        0.92750    0.14850    0.59310    1.000
    C142     C        0.94570    0.13040    0.64810    1.000
    H21      H        0.97360    0.14650    0.66980    1.000
    C143     C        0.95380    0.19100    0.56630    1.000
    C144     C        0.82340    0.05370    0.55250    1.000
    C145     C        0.67930    0.04610    0.55670    1.000
    C146     C        0.55030    0.18110    0.55260    1.000
    C147     C        0.59280    0.09980    0.67870    1.000
    C148     C        0.62970    0.06980    0.64980    1.000
    H22      H        0.64670    0.04450    0.67150    1.000
    C149     C        0.64180    0.07670    0.58910    1.000
    C150     C        0.61700    0.11370    0.55730    1.000
    H23      H        0.62520    0.11850    0.51580    1.000
    C151     C        0.58000    0.14370    0.58620    1.000
    C152     C        0.56800    0.13680    0.64700    1.000
    H24      H        0.54270    0.15730    0.66680    1.000
    C153     C        0.96530    0.06230    0.78290    1.000
    C154     C        0.94160    0.07040    0.72770    1.000
    C155     C        0.57760    0.07580    0.79940    1.000
    C156     C        0.58020    0.09230    0.74140    1.000
    O31      O        0.99470    0.21070    0.59190    1.000
    O32      O        0.93260    0.20690    0.51680    1.000
    O33      O        0.80260    0.01620    0.57890    1.000
    O34      O        0.81280    0.06390    0.49600    1.000
    O35      O        0.69200    0.00490    0.57760    1.000
    O36      O        0.69750    0.06200    0.50620    1.000
    O37      O        0.50740    0.19920    0.57520    1.000
    O38      O        0.56720    0.19490    0.50000    1.000
    O39      O        0.15650    0.93300    0.00650    1.000
    O40      O        0.62500    0.07200    0.01100    1.000
    Cu9      Cu       0.25640    0.53125    0.45394    1.000
    Cu10     Cu       0.53831    0.24470    0.45873    1.000
    C157     C        0.59660    0.50940    0.03220    1.000
    C158     C        0.62920    0.54950    0.04180    1.000
    C159     C        0.62860    0.57250    0.09750    1.000
    C160     C        0.59530    0.55540    0.14360    1.000
    C161     C        0.56270    0.51540    0.13410    1.000
    C162     C        0.56340    0.49240    0.07840    1.000
    C163     C        0.53200    0.45110    0.06740    1.000
    C164     C        0.49980    0.43150    0.11280    1.000
    C165     C        0.49660    0.45530    0.16710    1.000
    C166     C        0.52870    0.49560    0.17870    1.000
    C167     C        0.06090    0.48350    0.02740    1.000
    C168     C        0.09500    0.44440    0.03620    1.000
    C169     C        0.09800    0.42280    0.09270    1.000
    C170     C        0.06690    0.44040    0.14040    1.000
    C171     C        0.03290    0.47960    0.13150    1.000
    C172     C        0.02990    0.50110    0.07500    1.000
    C173     C        0.00740    0.46240    0.06280    1.000
    C174     C        0.04050    0.44360    0.10800    1.000
    C175     C        0.03570    0.46300    0.16610    1.000
    C176     C        0.42290    0.41140    0.32880    1.000
    C177     C        0.38210    0.43500    0.36050    1.000
    H25      H        0.36650    0.46350    0.34470    1.000
    C178     C        0.36390    0.41690    0.41550    1.000
    C179     C        0.38670    0.37520    0.43870    1.000
    H26      H        0.37430    0.36280    0.47630    1.000
    C180     C        0.42750    0.35150    0.40690    1.000
    C181     C        0.44570    0.36960    0.35190    1.000
    H27      H        0.47360    0.35350    0.33020    1.000
    C182     C        0.45380    0.30900    0.43370    1.000
    C183     C        0.32340    0.44630    0.44750    1.000
    C184     C        0.17930    0.45390    0.44330    1.000
    C185     C        0.05030    0.31890    0.44740    1.000
    C186     C        0.09280    0.40020    0.32130    1.000
    C187     C        0.12970    0.43020    0.35020    1.000
    H28      H        0.14670    0.45550    0.32850    1.000
    C188     C        0.14180    0.42330    0.41090    1.000
    C189     C        0.11700    0.38630    0.44270    1.000
    H29      H        0.12520    0.38150    0.48420    1.000
    C190     C        0.08000    0.35630    0.41380    1.000
    C191     C        0.06800    0.36320    0.35300    1.000
    H30      H        0.04270    0.34270    0.33320    1.000
    C192     C        0.46530    0.43770    0.21710    1.000
    C193     C        0.44160    0.42960    0.27230    1.000
    C194     C        0.07760    0.42420    0.20060    1.000
    C195     C        0.08020    0.40770    0.25860    1.000
    O41      O        0.49470    0.28930    0.40810    1.000
    O42      O        0.43260    0.29310    0.48320    1.000
    O43      O        0.30260    0.48380    0.42110    1.000
    O44      O        0.31280    0.43610    0.50400    1.000
    O45      O        0.19200    0.49510    0.42240    1.000
    O46      O        0.19750    0.43800    0.49380    1.000
    O47      O        0.00740    0.30080    0.42480    1.000
    O48      O        0.06720    0.30510    0.50000    1.000
    O49      O        0.65650    0.56700    0.99350    1.000
    O50      O        0.12500    0.42800    0.98900    1.000
    Cu11     Cu       0.75640    0.03125    0.45394    1.000
    Cu12     Cu       0.03831    0.74470    0.45873    1.000
    C196     C        0.09660    0.00940    0.03220    1.000
    C197     C        0.12920    0.04950    0.04180    1.000
    C198     C        0.12860    0.07250    0.09750    1.000
    C199     C        0.09530    0.05540    0.14360    1.000
    C200     C        0.06270    0.01540    0.13410    1.000
    C201     C        0.06340    0.99240    0.07840    1.000
    C202     C        0.03200    0.95110    0.06740    1.000
    C203     C        0.99980    0.93150    0.11280    1.000
    C204     C        0.99660    0.95530    0.16710    1.000
    C205     C        0.02870    0.99560    0.17870    1.000
    C206     C        0.56090    0.98350    0.02740    1.000
    C207     C        0.59500    0.94440    0.03620    1.000
    C208     C        0.59800    0.92280    0.09270    1.000
    C209     C        0.56690    0.94040    0.14040    1.000
    C210     C        0.53290    0.97960    0.13150    1.000
    C211     C        0.52990    0.00110    0.07500    1.000
    C212     C        0.50740    0.96240    0.06280    1.000
    C213     C        0.54050    0.94360    0.10800    1.000
    C214     C        0.53570    0.96300    0.16610    1.000
    C215     C        0.92290    0.91140    0.32880    1.000
    C216     C        0.88210    0.93500    0.36050    1.000
    H31      H        0.86650    0.96350    0.34470    1.000
    C217     C        0.86390    0.91690    0.41550    1.000
    C218     C        0.88670    0.87520    0.43870    1.000
    H32      H        0.87430    0.86280    0.47630    1.000
    C219     C        0.92750    0.85150    0.40690    1.000
    C220     C        0.94570    0.86960    0.35190    1.000
    H33      H        0.97360    0.85350    0.33020    1.000
    C221     C        0.95380    0.80900    0.43370    1.000
    C222     C        0.82340    0.94630    0.44750    1.000
    C223     C        0.67930    0.95390    0.44330    1.000
    C224     C        0.55030    0.81890    0.44740    1.000
    C225     C        0.59280    0.90020    0.32130    1.000
    C226     C        0.62970    0.93020    0.35020    1.000
    H34      H        0.64670    0.95550    0.32850    1.000
    C227     C        0.64180    0.92330    0.41090    1.000
    C228     C        0.61700    0.88630    0.44270    1.000
    H35      H        0.62520    0.88150    0.48420    1.000
    C229     C        0.58000    0.85630    0.41380    1.000
    C230     C        0.56800    0.86320    0.35300    1.000
    H36      H        0.54270    0.84270    0.33320    1.000
    C231     C        0.96530    0.93770    0.21710    1.000
    C232     C        0.94160    0.92960    0.27230    1.000
    C233     C        0.57760    0.92420    0.20060    1.000
    C234     C        0.58020    0.90770    0.25860    1.000
    O51      O        0.99470    0.78930    0.40810    1.000
    O52      O        0.93260    0.79310    0.48320    1.000
    O53      O        0.80260    0.98380    0.42110    1.000
    O54      O        0.81280    0.93610    0.50400    1.000
    O55      O        0.69200    0.99510    0.42240    1.000
    O56      O        0.69750    0.93800    0.49380    1.000
    O57      O        0.50740    0.80080    0.42480    1.000
    O58      O        0.56720    0.80510    0.50000    1.000
    O59      O        0.15650    0.06700    0.99350    1.000
    O60      O        0.62500    0.92800    0.98900    1.000
    Cu13     Cu       0.74360    0.46875    0.45394    1.000
    Cu14     Cu       0.46169    0.75530    0.45873    1.000
    C235     C        0.40340    0.49060    0.03220    1.000
    C236     C        0.37080    0.45050    0.04180    1.000
    C237     C        0.37140    0.42750    0.09750    1.000
    C238     C        0.40470    0.44460    0.14360    1.000
    C239     C        0.43730    0.48460    0.13410    1.000
    C240     C        0.43660    0.50760    0.07840    1.000
    C241     C        0.46800    0.54890    0.06740    1.000
    C242     C        0.50020    0.56850    0.11280    1.000
    C243     C        0.50340    0.54470    0.16710    1.000
    C244     C        0.47130    0.50440    0.17870    1.000
    C245     C        0.93910    0.51650    0.02740    1.000
    C246     C        0.90500    0.55560    0.03620    1.000
    C247     C        0.90200    0.57720    0.09270    1.000
    C248     C        0.93310    0.55960    0.14040    1.000
    C249     C        0.96710    0.52040    0.13150    1.000
    C250     C        0.97010    0.49890    0.07500    1.000
    C251     C        0.99260    0.53760    0.06280    1.000
    C252     C        0.95950    0.55640    0.10800    1.000
    C253     C        0.96430    0.53700    0.16610    1.000
    C254     C        0.57710    0.58860    0.32880    1.000
    C255     C        0.61790    0.56500    0.36050    1.000
    H37      H        0.63350    0.53650    0.34470    1.000
    C256     C        0.63610    0.58310    0.41550    1.000
    C257     C        0.61330    0.62480    0.43870    1.000
    H38      H        0.62570    0.63720    0.47630    1.000
    C258     C        0.57250    0.64850    0.40690    1.000
    C259     C        0.55430    0.63040    0.35190    1.000
    H39      H        0.52640    0.64650    0.33020    1.000
    C260     C        0.54620    0.69100    0.43370    1.000
    C261     C        0.67660    0.55370    0.44750    1.000
    C262     C        0.82070    0.54610    0.44330    1.000
    C263     C        0.94970    0.68110    0.44740    1.000
    C264     C        0.90720    0.59980    0.32130    1.000
    C265     C        0.87030    0.56980    0.35020    1.000
    H40      H        0.85330    0.54450    0.32850    1.000
    C266     C        0.85820    0.57670    0.41090    1.000
    C267     C        0.88300    0.61370    0.44270    1.000
    H41      H        0.87480    0.61850    0.48420    1.000
    C268     C        0.92000    0.64370    0.41380    1.000
    C269     C        0.93200    0.63680    0.35300    1.000
    H42      H        0.95730    0.65730    0.33320    1.000
    C270     C        0.53470    0.56230    0.21710    1.000
    C271     C        0.55840    0.57040    0.27230    1.000
    C272     C        0.92240    0.57580    0.20060    1.000
    C273     C        0.91980    0.59230    0.25860    1.000
    O61      O        0.50530    0.71070    0.40810    1.000
    O62      O        0.56740    0.70690    0.48320    1.000
    O63      O        0.69740    0.51620    0.42110    1.000
    O64      O        0.68720    0.56390    0.50400    1.000
    O65      O        0.80800    0.50490    0.42240    1.000
    O66      O        0.80250    0.56200    0.49380    1.000
    O67      O        0.99260    0.69920    0.42480    1.000
    O68      O        0.93280    0.69490    0.50000    1.000
    O69      O        0.34350    0.43300    0.99350    1.000
    O70      O        0.87500    0.57200    0.98900    1.000
    Cu15     Cu       0.24360    0.96875    0.45394    1.000
    Cu16     Cu       0.96169    0.25530    0.45873    1.000
    C274     C        0.90340    0.99060    0.03220    1.000
    C275     C        0.87080    0.95050    0.04180    1.000
    C276     C        0.87140    0.92750    0.09750    1.000
    C277     C        0.90470    0.94460    0.14360    1.000
    C278     C        0.93730    0.98460    0.13410    1.000
    C279     C        0.93660    0.00760    0.07840    1.000
    C280     C        0.96800    0.04890    0.06740    1.000
    C281     C        0.00020    0.06850    0.11280    1.000
    C282     C        0.00340    0.04470    0.16710    1.000
    C283     C        0.97130    0.00440    0.17870    1.000
    C284     C        0.43910    0.01650    0.02740    1.000
    C285     C        0.40500    0.05560    0.03620    1.000
    C286     C        0.40200    0.07720    0.09270    1.000
    C287     C        0.43310    0.05960    0.14040    1.000
    C288     C        0.46710    0.02040    0.13150    1.000
    C289     C        0.47010    0.99890    0.07500    1.000
    C290     C        0.49260    0.03760    0.06280    1.000
    C291     C        0.45950    0.05640    0.10800    1.000
    C292     C        0.46430    0.03700    0.16610    1.000
    C293     C        0.07710    0.08860    0.32880    1.000
    C294     C        0.11790    0.06500    0.36050    1.000
    H43      H        0.13350    0.03650    0.34470    1.000
    C295     C        0.13610    0.08310    0.41550    1.000
    C296     C        0.11330    0.12480    0.43870    1.000
    H44      H        0.12570    0.13720    0.47630    1.000
    C297     C        0.07250    0.14850    0.40690    1.000
    C298     C        0.05430    0.13040    0.35190    1.000
    H45      H        0.02640    0.14650    0.33020    1.000
    C299     C        0.04620    0.19100    0.43370    1.000
    C300     C        0.17660    0.05370    0.44750    1.000
    C301     C        0.32070    0.04610    0.44330    1.000
    C302     C        0.44970    0.18110    0.44740    1.000
    C303     C        0.40720    0.09980    0.32130    1.000
    C304     C        0.37030    0.06980    0.35020    1.000
    H46      H        0.35330    0.04450    0.32850    1.000
    C305     C        0.35820    0.07670    0.41090    1.000
    C306     C        0.38300    0.11370    0.44270    1.000
    H47      H        0.37480    0.11850    0.48420    1.000
    C307     C        0.42000    0.14370    0.41380    1.000
    C308     C        0.43200    0.13680    0.35300    1.000
    H48      H        0.45730    0.15730    0.33320    1.000
    C309     C        0.03470    0.06230    0.21710    1.000
    C310     C        0.05840    0.07040    0.27230    1.000
    C311     C        0.42240    0.07580    0.20060    1.000
    C312     C        0.41980    0.09230    0.25860    1.000
    O71      O        0.00530    0.21070    0.40810    1.000
    O72      O        0.06740    0.20690    0.48320    1.000
    O73      O        0.19740    0.01620    0.42110    1.000
    O74      O        0.18720    0.06390    0.50400    1.000
    O75      O        0.30800    0.00490    0.42240    1.000
    O76      O        0.30250    0.06200    0.49380    1.000
    O77      O        0.49260    0.19920    0.42480    1.000
    O78      O        0.43280    0.19490    0.50000    1.000
    O79      O        0.84350    0.93300    0.99350    1.000
    O80      O        0.37500    0.07200    0.98900    1.000
    C313     C        0.00000    0.50000    0.82280    1.000
    C314     C        0.50000    0.00000    0.82280    1.000
    C315     C        0.00000    0.50000    0.17720    1.000
    C316     C        0.50000    0.00000    0.17720    1.000
