# CIF file generated by openbabel 3.1.0, see https://openbabel.org
data_I
_chemical_name_common 'image0'
_cell_length_a 16.269
_cell_length_b 20.73
_cell_length_c 14.9828
_cell_angle_alpha 90
_cell_angle_beta 90
_cell_angle_gamma 90
_space_group_name_H-M_alt 'P 1'
_space_group_name_Hall 'P 1'
loop_
    _symmetry_equiv_pos_as_xyz
    x,y,z
loop_
    _atom_site_label
    _atom_site_type_symbol
    _atom_site_fract_x
    _atom_site_fract_y
    _atom_site_fract_z
    _atom_site_occupancy
    C1       C        0.21676    0.43159    0.85965    1.000
    C2       C        0.01301    0.25237    0.82923    1.000
    C3       C        0.00873    0.43887    0.61480    1.000
    Cu1      Cu       0.10619    0.56630    0.53314    1.000
    C4       C        0.11238    0.43109    0.73708    1.000
    H1       H        0.13320    0.47160    0.71770    1.000
    N1       N        0.33118    0.50331    0.95802    1.000
    O1       O        0.02698    0.49602    0.60255    1.000
    O2       O        0.95931    0.40514    0.56823    1.000
    N2       N        0.94247    0.14097    0.90019    1.000
    C5       C        0.11790    0.34013    0.83717    1.000
    H2       H        0.14360    0.31760    0.88490    1.000
    C6       C        0.04588    0.40358    0.69346    1.000
    C7       C        0.26342    0.47995    0.81973    1.000
    H3       H        0.25790    0.48860    0.75780    1.000
    C8       C        0.89653    0.18997    0.87230    1.000
    H4       H        0.83850    0.18650    0.87730    1.000
    C9       C        0.28958    0.45400    0.99439    1.000
    H5       H        0.30030    0.44330    0.05490    1.000
    C10      C        0.23233    0.41806    0.94887    1.000
    H6       H        0.20360    0.38420    0.97820    1.000
    C11      C        0.06093    0.20081    0.85807    1.000
    H7       H        0.11910    0.20310    0.85420    1.000
    C12      C        0.14918    0.39956    0.80973    1.000
    C13      C        0.31767    0.51508    0.87108    1.000
    H8       H        0.34700    0.54940    0.84360    1.000
    C14      C        0.92910    0.24571    0.83650    1.000
    H9       H        0.89380    0.27930    0.81700    1.000
    C15      C        0.02392    0.14682    0.89202    1.000
    H10      H        0.05770    0.11190    0.91060    1.000
    C16      C        0.04894    0.31327    0.79505    1.000
    C17      C        0.01383    0.34546    0.72235    1.000
    H11      H        0.96770    0.32730    0.69270    1.000
    C18      C        0.28324    0.06841    0.85965    1.000
    C19      C        0.48699    0.24763    0.82923    1.000
    C20      C        0.49127    0.06113    0.61480    1.000
    Cu2      Cu       0.39381    0.93370    0.53314    1.000
    C21      C        0.38762    0.06891    0.73708    1.000
    H12      H        0.36680    0.02840    0.71770    1.000
    N3       N        0.16882    0.99669    0.95802    1.000
    O3       O        0.47302    0.00398    0.60255    1.000
    O4       O        0.54069    0.09486    0.56823    1.000
    N4       N        0.55753    0.35903    0.90019    1.000
    C22      C        0.38210    0.15987    0.83717    1.000
    H13      H        0.35640    0.18240    0.88490    1.000
    C23      C        0.45412    0.09642    0.69346    1.000
    C24      C        0.23658    0.02005    0.81973    1.000
    H14      H        0.24210    0.01140    0.75780    1.000
    C25      C        0.60347    0.31003    0.87230    1.000
    H15      H        0.66150    0.31350    0.87730    1.000
    C26      C        0.21042    0.04600    0.99439    1.000
    H16      H        0.19970    0.05670    0.05490    1.000
    C27      C        0.26767    0.08194    0.94887    1.000
    H17      H        0.29640    0.11580    0.97820    1.000
    C28      C        0.43907    0.29919    0.85807    1.000
    H18      H        0.38090    0.29690    0.85420    1.000
    C29      C        0.35082    0.10044    0.80973    1.000
    C30      C        0.18233    0.98492    0.87108    1.000
    H19      H        0.15300    0.95060    0.84360    1.000
    C31      C        0.57090    0.25429    0.83650    1.000
    H20      H        0.60620    0.22070    0.81700    1.000
    C32      C        0.47608    0.35318    0.89202    1.000
    H21      H        0.44230    0.38810    0.91060    1.000
    C33      C        0.45106    0.18673    0.79505    1.000
    C34      C        0.48617    0.15454    0.72235    1.000
    H22      H        0.53230    0.17270    0.69270    1.000
    C35      C        0.78324    0.93159    0.64035    1.000
    C36      C        0.98699    0.75237    0.67077    1.000
    C37      C        0.99127    0.93887    0.88520    1.000
    Cu3      Cu       0.89381    0.06630    0.96686    1.000
    C38      C        0.88762    0.93109    0.76292    1.000
    H23      H        0.86680    0.97160    0.78230    1.000
    N5       N        0.66882    0.00331    0.54198    1.000
    O5       O        0.97302    0.99602    0.89745    1.000
    O6       O        0.04069    0.90514    0.93177    1.000
    N6       N        0.05753    0.64097    0.59981    1.000
    C39      C        0.88210    0.84013    0.66283    1.000
    H24      H        0.85640    0.81760    0.61510    1.000
    C40      C        0.95412    0.90358    0.80654    1.000
    C41      C        0.73658    0.97995    0.68027    1.000
    H25      H        0.74210    0.98860    0.74220    1.000
    C42      C        0.10347    0.68997    0.62770    1.000
    H26      H        0.16150    0.68650    0.62270    1.000
    C43      C        0.71042    0.95400    0.50561    1.000
    H27      H        0.69970    0.94330    0.44510    1.000
    C44      C        0.76767    0.91806    0.55113    1.000
    H28      H        0.79640    0.88420    0.52180    1.000
    C45      C        0.93907    0.70081    0.64193    1.000
    H29      H        0.88090    0.70310    0.64580    1.000
    C46      C        0.85082    0.89956    0.69027    1.000
    C47      C        0.68233    0.01508    0.62892    1.000
    H30      H        0.65300    0.04940    0.65640    1.000
    C48      C        0.07090    0.74571    0.66350    1.000
    H31      H        0.10620    0.77930    0.68300    1.000
    C49      C        0.97608    0.64682    0.60798    1.000
    H32      H        0.94230    0.61190    0.58940    1.000
    C50      C        0.95106    0.81327    0.70495    1.000
    C51      C        0.98617    0.84546    0.77765    1.000
    H33      H        0.03230    0.82730    0.80730    1.000
    C52      C        0.71676    0.56841    0.64035    1.000
    C53      C        0.51301    0.74763    0.67077    1.000
    C54      C        0.50873    0.56113    0.88520    1.000
    Cu4      Cu       0.60619    0.43370    0.96686    1.000
    C55      C        0.61238    0.56891    0.76292    1.000
    H34      H        0.63320    0.52840    0.78230    1.000
    N7       N        0.83118    0.49669    0.54198    1.000
    O7       O        0.52698    0.50398    0.89745    1.000
    O8       O        0.45931    0.59486    0.93177    1.000
    N8       N        0.44247    0.85903    0.59981    1.000
    C56      C        0.61790    0.65987    0.66283    1.000
    H35      H        0.64360    0.68240    0.61510    1.000
    C57      C        0.54588    0.59642    0.80654    1.000
    C58      C        0.76342    0.52005    0.68027    1.000
    H36      H        0.75790    0.51140    0.74220    1.000
    C59      C        0.39653    0.81003    0.62770    1.000
    H37      H        0.33850    0.81350    0.62270    1.000
    C60      C        0.78958    0.54600    0.50561    1.000
    H38      H        0.80030    0.55670    0.44510    1.000
    C61      C        0.73233    0.58194    0.55113    1.000
    H39      H        0.70360    0.61580    0.52180    1.000
    C62      C        0.56093    0.79919    0.64193    1.000
    H40      H        0.61910    0.79690    0.64580    1.000
    C63      C        0.64918    0.60044    0.69027    1.000
    C64      C        0.81767    0.48492    0.62892    1.000
    H41      H        0.84700    0.45060    0.65640    1.000
    C65      C        0.42910    0.75429    0.66350    1.000
    H42      H        0.39380    0.72070    0.68300    1.000
    C66      C        0.52392    0.85318    0.60798    1.000
    H43      H        0.55770    0.88810    0.58940    1.000
    C67      C        0.54894    0.68673    0.70495    1.000
    C68      C        0.51383    0.65454    0.77765    1.000
    H44      H        0.46770    0.67270    0.80730    1.000
    C69      C        0.78324    0.56841    0.14035    1.000
    C70      C        0.98699    0.74763    0.17077    1.000
    C71      C        0.99127    0.56113    0.38520    1.000
    Cu5      Cu       0.89381    0.43370    0.46686    1.000
    C72      C        0.88762    0.56891    0.26292    1.000
    H45      H        0.86680    0.52840    0.28230    1.000
    N9       N        0.66882    0.49669    0.04198    1.000
    O9       O        0.97302    0.50398    0.39745    1.000
    O10      O        0.04069    0.59486    0.43177    1.000
    N10      N        0.05753    0.85903    0.09981    1.000
    C73      C        0.88210    0.65987    0.16283    1.000
    H46      H        0.85640    0.68240    0.11510    1.000
    C74      C        0.95412    0.59642    0.30654    1.000
    C75      C        0.73658    0.52005    0.18027    1.000
    H47      H        0.74210    0.51140    0.24220    1.000
    C76      C        0.10347    0.81003    0.12770    1.000
    H48      H        0.16150    0.81350    0.12270    1.000
    C77      C        0.71042    0.54600    0.00561    1.000
    H49      H        0.69970    0.55670    0.94510    1.000
    C78      C        0.76767    0.58194    0.05113    1.000
    H50      H        0.79640    0.61580    0.02180    1.000
    C79      C        0.93907    0.79919    0.14193    1.000
    H51      H        0.88090    0.79690    0.14580    1.000
    C80      C        0.85082    0.60044    0.19027    1.000
    C81      C        0.68233    0.48492    0.12892    1.000
    H52      H        0.65300    0.45060    0.15640    1.000
    C82      C        0.07090    0.75429    0.16350    1.000
    H53      H        0.10620    0.72070    0.18300    1.000
    C83      C        0.97608    0.85318    0.10798    1.000
    H54      H        0.94230    0.88810    0.08940    1.000
    C84      C        0.95106    0.68673    0.20495    1.000
    C85      C        0.98617    0.65454    0.27765    1.000
    H55      H        0.03230    0.67270    0.30730    1.000
    C86      C        0.71676    0.93159    0.14035    1.000
    C87      C        0.51301    0.75237    0.17077    1.000
    C88      C        0.50873    0.93887    0.38520    1.000
    Cu6      Cu       0.60619    0.06630    0.46686    1.000
    C89      C        0.61238    0.93109    0.26292    1.000
    H56      H        0.63320    0.97160    0.28230    1.000
    N11      N        0.83118    0.00331    0.04198    1.000
    O11      O        0.52698    0.99602    0.39745    1.000
    O12      O        0.45931    0.90514    0.43177    1.000
    N12      N        0.44247    0.64097    0.09981    1.000
    C90      C        0.61790    0.84013    0.16283    1.000
    H57      H        0.64360    0.81760    0.11510    1.000
    C91      C        0.54588    0.90358    0.30654    1.000
    C92      C        0.76342    0.97995    0.18027    1.000
    H58      H        0.75790    0.98860    0.24220    1.000
    C93      C        0.39653    0.68997    0.12770    1.000
    H59      H        0.33850    0.68650    0.12270    1.000
    C94      C        0.78958    0.95400    0.00561    1.000
    H60      H        0.80030    0.94330    0.94510    1.000
    C95      C        0.73233    0.91806    0.05113    1.000
    H61      H        0.70360    0.88420    0.02180    1.000
    C96      C        0.56093    0.70081    0.14193    1.000
    H62      H        0.61910    0.70310    0.14580    1.000
    C97      C        0.64918    0.89956    0.19027    1.000
    C98      C        0.81767    0.01508    0.12892    1.000
    H63      H        0.84700    0.04940    0.15640    1.000
    C99      C        0.42910    0.74571    0.16350    1.000
    H64      H        0.39380    0.77930    0.18300    1.000
    C100     C        0.52392    0.64682    0.10798    1.000
    H65      H        0.55770    0.61190    0.08940    1.000
    C101     C        0.54894    0.81327    0.20495    1.000
    C102     C        0.51383    0.84546    0.27765    1.000
    H66      H        0.46770    0.82730    0.30730    1.000
    C103     C        0.21676    0.06841    0.35965    1.000
    C104     C        0.01301    0.24763    0.32923    1.000
    C105     C        0.00873    0.06113    0.11480    1.000
    Cu7      Cu       0.10619    0.93370    0.03314    1.000
    C106     C        0.11238    0.06891    0.23708    1.000
    H67      H        0.13320    0.02840    0.21770    1.000
    N13      N        0.33118    0.99669    0.45802    1.000
    O13      O        0.02698    0.00398    0.10255    1.000
    O14      O        0.95931    0.09486    0.06823    1.000
    N14      N        0.94247    0.35903    0.40019    1.000
    C107     C        0.11790    0.15987    0.33717    1.000
    H68      H        0.14360    0.18240    0.38490    1.000
    C108     C        0.04588    0.09642    0.19346    1.000
    C109     C        0.26342    0.02005    0.31973    1.000
    H69      H        0.25790    0.01140    0.25780    1.000
    C110     C        0.89653    0.31003    0.37230    1.000
    H70      H        0.83850    0.31350    0.37730    1.000
    C111     C        0.28958    0.04600    0.49439    1.000
    H71      H        0.30030    0.05670    0.55490    1.000
    C112     C        0.23233    0.08194    0.44887    1.000
    H72      H        0.20360    0.11580    0.47820    1.000
    C113     C        0.06093    0.29919    0.35807    1.000
    H73      H        0.11910    0.29690    0.35420    1.000
    C114     C        0.14918    0.10044    0.30973    1.000
    C115     C        0.31767    0.98492    0.37108    1.000
    H74      H        0.34700    0.95060    0.34360    1.000
    C116     C        0.92910    0.25429    0.33650    1.000
    H75      H        0.89380    0.22070    0.31700    1.000
    C117     C        0.02392    0.35318    0.39202    1.000
    H76      H        0.05770    0.38810    0.41060    1.000
    C118     C        0.04894    0.18673    0.29505    1.000
    C119     C        0.01383    0.15454    0.22235    1.000
    H77      H        0.96770    0.17270    0.19270    1.000
    C120     C        0.28324    0.43159    0.35965    1.000
    C121     C        0.48699    0.25237    0.32923    1.000
    C122     C        0.49127    0.43887    0.11480    1.000
    Cu8      Cu       0.39381    0.56630    0.03314    1.000
    C123     C        0.38762    0.43109    0.23708    1.000
    H78      H        0.36680    0.47160    0.21770    1.000
    N15      N        0.16882    0.50331    0.45802    1.000
    O15      O        0.47302    0.49602    0.10255    1.000
    O16      O        0.54069    0.40514    0.06823    1.000
    N16      N        0.55753    0.14097    0.40019    1.000
    C124     C        0.38210    0.34013    0.33717    1.000
    H79      H        0.35640    0.31760    0.38490    1.000
    C125     C        0.45412    0.40358    0.19346    1.000
    C126     C        0.23658    0.47995    0.31973    1.000
    H80      H        0.24210    0.48860    0.25780    1.000
    C127     C        0.60347    0.18997    0.37230    1.000
    H81      H        0.66150    0.18650    0.37730    1.000
    C128     C        0.21042    0.45400    0.49439    1.000
    H82      H        0.19970    0.44330    0.55490    1.000
    C129     C        0.26767    0.41806    0.44887    1.000
    H83      H        0.29640    0.38420    0.47820    1.000
    C130     C        0.43907    0.20081    0.35807    1.000
    H84      H        0.38090    0.20310    0.35420    1.000
    C131     C        0.35082    0.39956    0.30973    1.000
    C132     C        0.18233    0.51508    0.37108    1.000
    H85      H        0.15300    0.54940    0.34360    1.000
    C133     C        0.57090    0.24571    0.33650    1.000
    H86      H        0.60620    0.27930    0.31700    1.000
    C134     C        0.47608    0.14682    0.39202    1.000
    H87      H        0.44230    0.11190    0.41060    1.000
    C135     C        0.45106    0.31327    0.29505    1.000
    C136     C        0.48617    0.34546    0.22235    1.000
    H88      H        0.53230    0.32730    0.19270    1.000
