# CIF file generated by openbabel 3.1.0, see https://openbabel.org
data_I
_chemical_name_common 'image0'
_cell_length_a 13.229
_cell_length_b 15.396
_cell_length_c 14.8
_cell_angle_alpha 90
_cell_angle_beta 95.1
_cell_angle_gamma 90
_space_group_name_H-M_alt 'P 1'
_space_group_name_Hall 'P 1'
loop_
    _symmetry_equiv_pos_as_xyz
    x,y,z
loop_
    _atom_site_label
    _atom_site_type_symbol
    _atom_site_fract_x
    _atom_site_fract_y
    _atom_site_fract_z
    _atom_site_occupancy
    Ga1      Ga       0.61380    0.53980    0.17910    1.000
    Ga2      Ga       0.56480    0.60490    0.50090    1.000
    Ga3      Ga       0.56880    0.35150    0.49660    1.000
    Ga4      Ga       0.32480    0.47400    0.47200    1.000
    Ga5      Ga       0.25340    0.37500    0.24790    1.000
    Ga6      Ga       0.89340    0.43060    0.31250    1.000
    Ga7      Ga       0.94490    0.35020    0.00000    1.000
    Ga8      Ga       0.91830    0.60740    0.00080    1.000
    Ga9      Ga       0.17800    0.47720    0.02900    1.000
    Ga10     Ga       0.24070    0.57970    0.25240    1.000
    P1       P        0.67980    0.47980    0.37860    1.000
    P2       P        0.47910    0.47580    0.63850    1.000
    P3       P        0.36880    0.27990    0.41370    1.000
    P4       P        0.63540    0.17080    0.58210    1.000
    P5       P        0.38590    0.48280    0.12670    1.000
    P6       P        0.81730    0.46570    0.11620    1.000
    P7       P        0.02350    0.48430    0.86330    1.000
    P8       P        0.11940    0.66960    0.08930    1.000
    P9       P        0.14870    0.28080    0.07590    1.000
    P10      P        0.11510    0.46830    0.37630    1.000
    O1       O        0.60760    0.48700    0.29690    1.000
    O2       O        0.66360    0.55640    0.44200    1.000
    O3       O        0.66470    0.39390    0.42850    1.000
    O4       O        0.70830    0.45740    0.14110    1.000
    O5       O        0.52500    0.55840    0.60670    1.000
    O6       O        0.54370    0.39870    0.60440    1.000
    O7       O        0.48870    0.47650    0.73990    1.000
    O8       O        0.36530    0.46810    0.59770    1.000
    O9       O        0.65270    0.25960    0.54330    1.000
    O10      O        0.47980    0.65670    0.41260    1.000
    O11      O        0.48270    0.28730    0.41860    1.000
    O12      O        0.32460    0.28500    0.31570    1.000
    O13      O        0.13860    0.39070    0.31960    1.000
    O14      O        0.18900    0.28340    0.17660    1.000
    O15      O        0.36610    0.39990    0.17580    1.000
    O16      O        0.32570    0.48480    0.03270    1.000
    O17      O        0.49880    0.49320    0.11640    1.000
    O18      O        0.32580    0.60240    0.47790    1.000
    O19      O        0.65520    0.68770    0.54980    1.000
    O20      O        0.32420    0.34810    0.47060    1.000
    O21      O        0.89540    0.48210    0.20240    1.000
    O22      O        0.84080    0.38280    0.06800    1.000
    O23      O        0.82030    0.54060    0.05040    1.000
    O24      O        0.78870    0.48590    0.35970    1.000
    O25      O        0.96210    0.40080    0.88680    1.000
    O26      O        0.96680    0.56460    0.89600    1.000
    O27      O        0.01630    0.49090    0.76220    1.000
    O28      O        0.13290    0.48080    0.90000    1.000
    O29      O        0.17930    0.19050    0.03750    1.000
    O30      O        0.03040    0.28080    0.06970    1.000
    O31      O        0.00480    0.65670    0.09020    1.000
    O32      O        0.16500    0.66590    0.18700    1.000
    O33      O        0.35450    0.56490    0.17830    1.000
    O34      O        0.68310    0.16470    0.67850    1.000
    O35      O        0.13410    0.55390    0.32320    1.000
    O36      O        0.17550    0.46930    0.46970    1.000
    O37      O        0.00070    0.46660    0.39200    1.000
    O38      O        0.18740    0.35330    0.01960    1.000
    O39      O        0.86230    0.26000    0.94720    1.000
    O40      O        0.16550    0.60190    0.02740    1.000
    O41      O        0.18150    0.47640    0.16790    1.000
    F1       F        0.47360    0.47090    0.45190    1.000
    O42      O        0.31400    0.47630    0.32940    1.000
    F2       F        0.02570    0.45840    0.05150    1.000
    Ga11     Ga       0.38620    0.03980    0.82090    1.000
    Ga12     Ga       0.43520    0.10490    0.49910    1.000
    Ga13     Ga       0.43120    0.85150    0.50340    1.000
    Ga14     Ga       0.67520    0.97400    0.52800    1.000
    Ga15     Ga       0.74660    0.87500    0.75210    1.000
    Ga16     Ga       0.10660    0.93060    0.68750    1.000
    Ga17     Ga       0.05510    0.85020    0.00000    1.000
    Ga18     Ga       0.08170    0.10740    0.99920    1.000
    Ga19     Ga       0.82200    0.97720    0.97100    1.000
    Ga20     Ga       0.75930    0.07970    0.74760    1.000
    P11      P        0.32020    0.97980    0.62140    1.000
    P12      P        0.52090    0.97580    0.36150    1.000
    P13      P        0.63120    0.77990    0.58630    1.000
    P14      P        0.36460    0.67080    0.41790    1.000
    P15      P        0.61410    0.98280    0.87330    1.000
    P16      P        0.18270    0.96570    0.88380    1.000
    P17      P        0.97650    0.98430    0.13670    1.000
    P18      P        0.88060    0.16960    0.91070    1.000
    P19      P        0.85130    0.78080    0.92410    1.000
    P20      P        0.88490    0.96830    0.62370    1.000
    O43      O        0.39240    0.98700    0.70310    1.000
    O44      O        0.33640    0.05640    0.55800    1.000
    O45      O        0.33530    0.89390    0.57150    1.000
    O46      O        0.29170    0.95740    0.85890    1.000
    O47      O        0.47500    0.05840    0.39330    1.000
    O48      O        0.45630    0.89870    0.39560    1.000
    O49      O        0.51130    0.97650    0.26010    1.000
    O50      O        0.63470    0.96810    0.40230    1.000
    O51      O        0.34730    0.75960    0.45670    1.000
    O52      O        0.52020    0.15670    0.58740    1.000
    O53      O        0.51730    0.78730    0.58140    1.000
    O54      O        0.67540    0.78500    0.68430    1.000
    O55      O        0.86140    0.89070    0.68040    1.000
    O56      O        0.81100    0.78340    0.82340    1.000
    O57      O        0.63390    0.89990    0.82420    1.000
    O58      O        0.67430    0.98480    0.96730    1.000
    O59      O        0.50120    0.99320    0.88360    1.000
    O60      O        0.67420    0.10240    0.52210    1.000
    O61      O        0.34480    0.18770    0.45020    1.000
    O62      O        0.67580    0.84810    0.52940    1.000
    O63      O        0.10460    0.98210    0.79760    1.000
    O64      O        0.15920    0.88280    0.93200    1.000
    O65      O        0.17970    0.04060    0.94960    1.000
    O66      O        0.21130    0.98590    0.64030    1.000
    O67      O        0.03790    0.90080    0.11320    1.000
    O68      O        0.03320    0.06460    0.10400    1.000
    O69      O        0.98370    0.99090    0.23780    1.000
    O70      O        0.86710    0.98080    0.10000    1.000
    O71      O        0.82070    0.69050    0.96250    1.000
    O72      O        0.96960    0.78080    0.93030    1.000
    O73      O        0.99520    0.15670    0.90980    1.000
    O74      O        0.83500    0.16590    0.81300    1.000
    O75      O        0.64550    0.06490    0.82170    1.000
    O76      O        0.31690    0.66470    0.32150    1.000
    O77      O        0.86590    0.05390    0.67680    1.000
    O78      O        0.82450    0.96930    0.53030    1.000
    O79      O        0.99930    0.96660    0.60800    1.000
    O80      O        0.81260    0.85330    0.98040    1.000
    O81      O        0.13770    0.76000    0.05280    1.000
    O82      O        0.83450    0.10190    0.97260    1.000
    O83      O        0.81850    0.97640    0.83210    1.000
    F3       F        0.52640    0.97090    0.54810    1.000
    O84      O        0.68600    0.97630    0.67060    1.000
    F4       F        0.97430    0.95840    0.94850    1.000
