# CIF file generated by openbabel 3.1.0, see https://openbabel.org
data_I
_chemical_name_common 'image0'
_cell_length_a 9.3421
_cell_length_b 9.3421
_cell_length_c 6.996
_cell_angle_alpha 90
_cell_angle_beta 90
_cell_angle_gamma 120
_space_group_name_H-M_alt 'P 1'
_space_group_name_Hall 'P 1'
loop_
    _symmetry_equiv_pos_as_xyz
    x,y,z
loop_
    _atom_site_label
    _atom_site_type_symbol
    _atom_site_fract_x
    _atom_site_fract_y
    _atom_site_fract_z
    _atom_site_occupancy
    O1       O        0.57340    0.72160    0.04090    1.000
    O2       O        0.43450    0.46750    0.83020    1.000
    Al1      Al       0.47892    0.83800    0.94364    1.000
    O3       O        0.27010    0.69860    0.04040    1.000
    H1       H        0.20400    0.65200    0.96800    1.000
    O4       O        0.27840    0.85180    0.37423    1.000
    O5       O        0.53250    0.96700    0.16353    1.000
    Al2      Al       0.16200    0.64092    0.27697    1.000
    O6       O        0.30140    0.57150    0.37373    1.000
    H2       H        0.34800    0.55200    0.30133    1.000
    O7       O        0.14820    0.42660    0.70757    1.000
    O8       O        0.03300    0.56550    0.49687    1.000
    Al3      Al       0.35908    0.52108    0.61031    1.000
    O9       O        0.42850    0.72990    0.70707    1.000
    H3       H        0.44800    0.79600    0.63467    1.000
    O10      O        0.72160    0.57340    0.95910    1.000
    O11      O        0.46750    0.43450    0.16980    1.000
    Al4      Al       0.83800    0.47892    0.05636    1.000
    O12      O        0.69860    0.27010    0.95960    1.000
    H4       H        0.65200    0.20400    0.03200    1.000
    O13      O        0.85180    0.27840    0.62577    1.000
    O14      O        0.96700    0.53250    0.83647    1.000
    Al5      Al       0.64092    0.16200    0.72303    1.000
    O15      O        0.57150    0.30140    0.62627    1.000
    H5       H        0.55200    0.34800    0.69867    1.000
    O16      O        0.42660    0.14820    0.29243    1.000
    O17      O        0.56550    0.03300    0.50313    1.000
    Al6      Al       0.52108    0.35908    0.38969    1.000
    O18      O        0.72990    0.42850    0.29293    1.000
    H6       H        0.79600    0.44800    0.36533    1.000
    P1       P        0.55059    0.55059    0.00000    1.000
    P2       P        0.44941    0.00000    0.33333    1.000
    P3       P        0.00000    0.44941    0.66667    1.000
    F1       F        0.68180    0.00000    0.83333    1.000
    F2       F        0.43170    0.00000    0.83333    1.000
    F3       F        0.00000    0.68180    0.16667    1.000
    F4       F        0.00000    0.43170    0.16667    1.000
    F5       F        0.31820    0.31820    0.50000    1.000
    F6       F        0.56830    0.56830    0.50000    1.000
