# CIF file generated by openbabel 3.1.0, see https://openbabel.org
data_I
_chemical_name_common 'image0'
_cell_length_a 13.85
_cell_length_b 12.77
_cell_length_c 6.939
_cell_angle_alpha 90
_cell_angle_beta 91.45
_cell_angle_gamma 90
_space_group_name_H-M_alt 'P 1'
_space_group_name_Hall 'P 1'
loop_
    _symmetry_equiv_pos_as_xyz
    x,y,z
loop_
    _atom_site_label
    _atom_site_type_symbol
    _atom_site_fract_x
    _atom_site_fract_y
    _atom_site_fract_z
    _atom_site_occupancy
    C1       C        0.94720    0.65920    0.46240    1.000
    H1       H        0.94560    0.65500    0.32280    1.000
    H2       H        0.91390    0.59840    0.51200    1.000
    C2       C        0.80320    0.77100    0.42240    1.000
    H3       H        0.81450    0.78370    0.28700    1.000
    H4       H        0.77270    0.83300    0.47390    1.000
    C3       C        0.73510    0.68020    0.43900    1.000
    C4       C        0.69740    0.62870    0.28160    1.000
    H5       H        0.71270    0.65130    0.15860    1.000
    C5       C        0.63620    0.54270    0.30260    1.000
    H6       H        0.61430    0.50810    0.19180    1.000
    C6       C        0.64520    0.55470    0.62340    1.000
    H7       H        0.63090    0.52860    0.74460    1.000
    C7       C        0.70610    0.64280    0.61340    1.000
    H8       H        0.72690    0.67590    0.72640    1.000
    N1       N        0.89740    0.75550    0.52370    1.000
    H9       H        0.88510    0.74790    0.65120    1.000
    N2       N        0.60740    0.50740    0.47200    1.000
    O1       O        0.97750    0.88330    0.18980    1.000
    C8       C        0.44720    0.15920    0.46240    1.000
    H10      H        0.44560    0.15500    0.32280    1.000
    H11      H        0.41390    0.09840    0.51200    1.000
    C9       C        0.30320    0.27100    0.42240    1.000
    H12      H        0.31450    0.28370    0.28700    1.000
    H13      H        0.27270    0.33300    0.47390    1.000
    C10      C        0.23510    0.18020    0.43900    1.000
    C11      C        0.19740    0.12870    0.28160    1.000
    H14      H        0.21270    0.15130    0.15860    1.000
    C12      C        0.13620    0.04270    0.30260    1.000
    H15      H        0.11430    0.00810    0.19180    1.000
    C13      C        0.14520    0.05470    0.62340    1.000
    H16      H        0.13090    0.02860    0.74460    1.000
    C14      C        0.20610    0.14280    0.61340    1.000
    H17      H        0.22690    0.17590    0.72640    1.000
    N3       N        0.39740    0.25550    0.52370    1.000
    H18      H        0.38510    0.24790    0.65120    1.000
    N4       N        0.10740    0.00740    0.47200    1.000
    O2       O        0.47750    0.38330    0.18980    1.000
    C15      C        0.05280    0.65920    0.53760    1.000
    H19      H        0.05440    0.65500    0.67720    1.000
    H20      H        0.08610    0.59840    0.48800    1.000
    C16      C        0.19680    0.77100    0.57760    1.000
    H21      H        0.18550    0.78370    0.71300    1.000
    H22      H        0.22730    0.83300    0.52610    1.000
    C17      C        0.26490    0.68020    0.56100    1.000
    C18      C        0.30260    0.62870    0.71840    1.000
    H23      H        0.28730    0.65130    0.84140    1.000
    C19      C        0.36380    0.54270    0.69740    1.000
    H24      H        0.38570    0.50810    0.80820    1.000
    C20      C        0.35480    0.55470    0.37660    1.000
    H25      H        0.36910    0.52860    0.25540    1.000
    C21      C        0.29390    0.64280    0.38660    1.000
    H26      H        0.27310    0.67590    0.27360    1.000
    N5       N        0.10260    0.75550    0.47630    1.000
    H27      H        0.11490    0.74790    0.34880    1.000
    N6       N        0.39260    0.50740    0.52800    1.000
    O3       O        0.02250    0.88330    0.81020    1.000
    C22      C        0.55280    0.15920    0.53760    1.000
    H28      H        0.55440    0.15500    0.67720    1.000
    H29      H        0.58610    0.09840    0.48800    1.000
    C23      C        0.69680    0.27100    0.57760    1.000
    H30      H        0.68550    0.28370    0.71300    1.000
    H31      H        0.72730    0.33300    0.52610    1.000
    C24      C        0.76490    0.18020    0.56100    1.000
    C25      C        0.80260    0.12870    0.71840    1.000
    H32      H        0.78730    0.15130    0.84140    1.000
    C26      C        0.86380    0.04270    0.69740    1.000
    H33      H        0.88570    0.00810    0.80820    1.000
    C27      C        0.85480    0.05470    0.37660    1.000
    H34      H        0.86910    0.02860    0.25540    1.000
    C28      C        0.79390    0.14280    0.38660    1.000
    H35      H        0.77310    0.17590    0.27360    1.000
    N7       N        0.60260    0.25550    0.47630    1.000
    H36      H        0.61490    0.24790    0.34880    1.000
    N8       N        0.89260    0.00740    0.52800    1.000
    O4       O        0.52250    0.38330    0.81020    1.000
    Zn1      Zn       0.00000    0.88497    0.50000    1.000
    Zn2      Zn       0.50000    0.38497    0.50000    1.000
    Cr1      Cr       0.00000    0.80964    0.00000    1.000
    Cr2      Cr       0.50000    0.30964    0.00000    1.000
