# CIF file generated by openbabel 3.1.0, see https://openbabel.org
data_I
_chemical_name_common 'CUYYEB_clean'
_cell_length_a 9.0723
_cell_length_b 9.0723
_cell_length_c 27.01
_cell_angle_alpha 90
_cell_angle_beta 90
_cell_angle_gamma 90
_space_group_name_H-M_alt 'P 1'
_space_group_name_Hall 'P 1'
loop_
    _symmetry_equiv_pos_as_xyz
    x,y,z
loop_
    _atom_site_label
    _atom_site_type_symbol
    _atom_site_fract_x
    _atom_site_fract_y
    _atom_site_fract_z
    _atom_site_occupancy
    Cd1      Cd       0.12298    0.68143    0.07739    1.000
    Cd2      Cd       0.87702    0.31857    0.57739    1.000
    Cd3      Cd       0.31857    0.12298    0.82739    1.000
    Cd4      Cd       0.68143    0.87702    0.32739    1.000
    H1       H        0.58340    0.16020    0.06490    1.000
    H2       H        0.97840    0.20810    0.99910    1.000
    H3       H        0.68710    0.91480    0.94600    1.000
    H4       H        0.46760    0.86490    0.07770    1.000
    H5       H        0.17560    0.84830    0.97160    1.000
    H6       H        0.38210    0.99170    0.94060    1.000
    H7       H        0.08680    0.19180    0.92280    1.000
    H8       H        0.09240    0.82710    0.84720    1.000
    H9       H        0.88660    0.80870    0.90540    1.000
    H10      H        0.04000    0.33440    0.06840    1.000
    H11      H        0.75590    0.59790    0.13150    1.000
    H12      H        0.61680    0.40210    0.09180    1.000
    H13      H        0.41660    0.83980    0.56490    1.000
    H14      H        0.02160    0.79190    0.49910    1.000
    H15      H        0.31290    0.08520    0.44600    1.000
    H16      H        0.53240    0.13510    0.57770    1.000
    H17      H        0.82440    0.15170    0.47160    1.000
    H18      H        0.61790    0.00830    0.44060    1.000
    H19      H        0.91320    0.80820    0.42280    1.000
    H20      H        0.90760    0.17290    0.34720    1.000
    H21      H        0.11340    0.19130    0.40540    1.000
    H22      H        0.96000    0.66560    0.56840    1.000
    H23      H        0.24410    0.40210    0.63150    1.000
    H24      H        0.38320    0.59790    0.59180    1.000
    H25      H        0.83980    0.58340    0.81490    1.000
    H26      H        0.79190    0.97840    0.74910    1.000
    H27      H        0.08520    0.68710    0.69600    1.000
    H28      H        0.13510    0.46760    0.82770    1.000
    H29      H        0.15170    0.17560    0.72160    1.000
    H30      H        0.00830    0.38210    0.69060    1.000
    H31      H        0.80820    0.08680    0.67280    1.000
    H32      H        0.17290    0.09240    0.59720    1.000
    H33      H        0.19130    0.88660    0.65540    1.000
    H34      H        0.66560    0.04000    0.81840    1.000
    H35      H        0.40210    0.75590    0.88150    1.000
    H36      H        0.59790    0.61680    0.84180    1.000
    H37      H        0.16020    0.41660    0.31490    1.000
    H38      H        0.20810    0.02160    0.24910    1.000
    H39      H        0.91480    0.31290    0.19600    1.000
    H40      H        0.86490    0.53240    0.32770    1.000
    H41      H        0.84830    0.82440    0.22160    1.000
    H42      H        0.99170    0.61790    0.19060    1.000
    H43      H        0.19180    0.91320    0.17280    1.000
    H44      H        0.82710    0.90760    0.09720    1.000
    H45      H        0.80870    0.11340    0.15540    1.000
    H46      H        0.33440    0.96000    0.31840    1.000
    H47      H        0.59790    0.24410    0.38150    1.000
    H48      H        0.40210    0.38320    0.34180    1.000
    C1       C        0.61600    0.02620    0.00629    1.000
    C2       C        0.64990    0.13470    0.04016    1.000
    C3       C        0.78480    0.20500    0.03658    1.000
    C4       C        0.88590    0.16400    0.00049    1.000
    C5       C        0.84660    0.05620    0.96659    1.000
    C6       C        0.71250    0.98670    0.96894    1.000
    C7       C        0.42020    0.87790    0.04753    1.000
    C8       C        0.26120    0.86950    0.98912    1.000
    C9       C        0.37430    0.94900    0.97174    1.000
    C10      C        0.06240    0.09880    0.91093    1.000
    C11      C        0.06490    0.89930    0.86986    1.000
    C12      C        0.95060    0.88810    0.90201    1.000
    C13      C        0.95230    0.37680    0.07902    1.000
    C14      C        0.79620    0.52010    0.11369    1.000
    C15      C        0.71880    0.41290    0.09167    1.000
    C16      C        0.38400    0.97380    0.50629    1.000
    C17      C        0.35010    0.86530    0.54016    1.000
    C18      C        0.21520    0.79500    0.53658    1.000
    C19      C        0.11410    0.83600    0.50049    1.000
    C20      C        0.15340    0.94380    0.46659    1.000
    C21      C        0.28750    0.01330    0.46894    1.000
    C22      C        0.57980    0.12210    0.54753    1.000
    C23      C        0.73880    0.13050    0.48912    1.000
    C24      C        0.62570    0.05100    0.47174    1.000
    C25      C        0.93760    0.90120    0.41093    1.000
    C26      C        0.93510    0.10070    0.36986    1.000
    C27      C        0.04940    0.11190    0.40201    1.000
    C28      C        0.04770    0.62320    0.57902    1.000
    C29      C        0.20380    0.47990    0.61369    1.000
    C30      C        0.28120    0.58710    0.59167    1.000
    C31      C        0.97380    0.61600    0.75629    1.000
    C32      C        0.86530    0.64990    0.79016    1.000
    C33      C        0.79500    0.78480    0.78658    1.000
    C34      C        0.83600    0.88590    0.75049    1.000
    C35      C        0.94380    0.84660    0.71659    1.000
    C36      C        0.01330    0.71250    0.71894    1.000
    C37      C        0.12210    0.42020    0.79753    1.000
    C38      C        0.13050    0.26120    0.73912    1.000
    C39      C        0.05100    0.37430    0.72174    1.000
    C40      C        0.90120    0.06240    0.66093    1.000
    C41      C        0.10070    0.06490    0.61986    1.000
    C42      C        0.11190    0.95060    0.65201    1.000
    C43      C        0.62320    0.95230    0.82902    1.000
    C44      C        0.47990    0.79620    0.86369    1.000
    C45      C        0.58710    0.71880    0.84167    1.000
    C46      C        0.02620    0.38400    0.25629    1.000
    C47      C        0.13470    0.35010    0.29016    1.000
    C48      C        0.20500    0.21520    0.28658    1.000
    C49      C        0.16400    0.11410    0.25049    1.000
    C50      C        0.05620    0.15340    0.21659    1.000
    C51      C        0.98670    0.28750    0.21894    1.000
    C52      C        0.87790    0.57980    0.29753    1.000
    C53      C        0.86950    0.73880    0.23912    1.000
    C54      C        0.94900    0.62570    0.22174    1.000
    C55      C        0.09880    0.93760    0.16093    1.000
    C56      C        0.89930    0.93510    0.11986    1.000
    C57      C        0.88810    0.04940    0.15201    1.000
    C58      C        0.37680    0.04770    0.32902    1.000
    C59      C        0.52010    0.20380    0.36369    1.000
    C60      C        0.41290    0.28120    0.34167    1.000
    N1       N        0.28990    0.82400    0.03672    1.000
    N2       N        0.47630    0.95460    0.00915    1.000
    N3       N        0.13360    0.03190    0.87564    1.000
    N4       N        0.94820    0.01680    0.92843    1.000
    N5       N        0.94540    0.49730    0.10586    1.000
    N6       N        0.81910    0.32190    0.06874    1.000
    N7       N        0.71010    0.17600    0.53672    1.000
    N8       N        0.52370    0.04540    0.50915    1.000
    N9       N        0.86640    0.96810    0.37564    1.000
    N10      N        0.05180    0.98320    0.42843    1.000
    N11      N        0.05460    0.50270    0.60586    1.000
    N12      N        0.18090    0.67810    0.56874    1.000
    N13      N        0.17600    0.28990    0.78672    1.000
    N14      N        0.04540    0.47630    0.75915    1.000
    N15      N        0.96810    0.13360    0.62564    1.000
    N16      N        0.98320    0.94820    0.67843    1.000
    N17      N        0.50270    0.94540    0.85586    1.000
    N18      N        0.67810    0.81910    0.81874    1.000
    N19      N        0.82400    0.71010    0.28672    1.000
    N20      N        0.95460    0.52370    0.25915    1.000
    N21      N        0.03190    0.86640    0.12564    1.000
    N22      N        0.01680    0.05180    0.17843    1.000
    N23      N        0.49730    0.05460    0.35586    1.000
    N24      N        0.32190    0.18090    0.31874    1.000
