# CIF file generated by openbabel 3.1.0, see https://openbabel.org
data_I
_chemical_name_common 'image0'
_cell_length_a 14.586
_cell_length_b 18.068
_cell_length_c 24.846
_cell_angle_alpha 90
_cell_angle_beta 90
_cell_angle_gamma 90
_space_group_name_H-M_alt 'P 1'
_space_group_name_Hall 'P 1'
loop_
    _symmetry_equiv_pos_as_xyz
    x,y,z
loop_
    _atom_site_label
    _atom_site_type_symbol
    _atom_site_fract_x
    _atom_site_fract_y
    _atom_site_fract_z
    _atom_site_occupancy
    Zn1      Zn       0.46049    0.93962    0.14407    1.000
    Zn2      Zn       0.49629    0.74682    0.14498    1.000
    O1       O        0.33040    0.91460    0.15110    1.000
    O2       O        0.38240    0.80830    0.12049    1.000
    O3       O        0.66390    0.57830    0.14240    1.000
    O4       O        0.61440    0.68890    0.16666    1.000
    O5       O        0.52610    0.92510    0.07734    1.000
    O6       O        0.58410    0.81600    0.10216    1.000
    O7       O        0.97960    0.92970    0.71279    1.000
    O8       O        0.91160    0.82480    0.68780    1.000
    O9       O        0.53200    0.92200    0.20932    1.000
    O10      O        0.50560    0.80180    0.21767    1.000
    O11      O        0.95820    0.93180    0.58083    1.000
    O12      O        0.98320    0.81100    0.57465    1.000
    N1       N        0.46700    0.05309    0.14360    1.000
    N2       N        0.52620    0.43920    0.14320    1.000
    C1       C        0.51530    0.08770    0.10540    1.000
    H1       H        0.54180    0.05900    0.07740    1.000
    C2       C        0.52840    0.16400    0.10490    1.000
    H2       H        0.56220    0.18730    0.07690    1.000
    C3       C        0.49070    0.20470    0.14630    1.000
    C4       C        0.44050    0.16960    0.18610    1.000
    C5       C        0.39310    0.20890    0.23160    1.000
    H3       H        0.34860    0.24430    0.21690    1.000
    H4       H        0.43850    0.23540    0.25330    1.000
    H5       H        0.36110    0.17270    0.25410    1.000
    C6       C        0.43210    0.09360    0.18270    1.000
    H6       H        0.39910    0.06890    0.21030    1.000
    C7       C        0.47930    0.40450    0.10390    1.000
    H7       H        0.45470    0.43250    0.07500    1.000
    C8       C        0.46650    0.32890    0.10510    1.000
    H8       H        0.43140    0.30540    0.07790    1.000
    C9       C        0.50570    0.28660    0.14690    1.000
    C10      C        0.56050    0.32300    0.18470    1.000
    C11      C        0.61840    0.28380    0.22550    1.000
    H9       H        0.60870    0.23030    0.22250    1.000
    H10      H        0.60140    0.30040    0.26170    1.000
    H11      H        0.68320    0.29510    0.21890    1.000
    C12      C        0.56660    0.39930    0.18150    1.000
    H12      H        0.60140    0.42460    0.20810    1.000
    C13      C        0.31920    0.84830    0.13820    1.000
    C14      C        0.22410    0.81890    0.14050    1.000
    C15      C        0.15130    0.86260    0.15930    1.000
    H13      H        0.16290    0.91100    0.17250    1.000
    C16      C        0.06020    0.83460    0.15840    1.000
    H14      H        0.01090    0.86380    0.17170    1.000
    C17      C        0.04370    0.76350    0.13780    1.000
    C18      C        0.11790    0.71980    0.12030    1.000
    H15      H        0.10730    0.67120    0.10720    1.000
    C19      C        0.20600    0.74750    0.12220    1.000
    H16      H        0.25540    0.71710    0.11070    1.000
    C20      C        0.94840    0.73380    0.13970    1.000
    C21      C        0.93360    0.65800    0.14600    1.000
    H17      H        0.98450    0.62530    0.14790    1.000
    C22      C        0.84640    0.63020    0.14960    1.000
    H18      H        0.83730    0.57870    0.15500    1.000
    C23      C        0.77240    0.67630    0.14540    1.000
    C24      C        0.78510    0.75110    0.14030    1.000
    H19      H        0.73390    0.78360    0.13960    1.000
    C25      C        0.87450    0.77920    0.13620    1.000
    H20      H        0.88350    0.83080    0.13090    1.000
    C26      C        0.67630    0.64610    0.15110    1.000
    C27      C        0.57530    0.86650    0.06980    1.000
    C28      C        0.63410    0.86680    0.02110    1.000
    C29      C        0.64870    0.93170    0.99160    1.000
    H21      H        0.62090    0.97670    0.00280    1.000
    C30      C        0.70330    0.93100    0.94630    1.000
    H22      H        0.71440    0.97590    0.92750    1.000
    C31      C        0.74210    0.86570    0.92760    1.000
    C32      C        0.72540    0.79920    0.95550    1.000
    H23      H        0.75070    0.75390    0.94300    1.000
    C33      C        0.67080    0.80090    0.00230    1.000
    H24      H        0.65890    0.75620    0.02120    1.000
    C34      C        0.79670    0.86510    0.87690    1.000
    C35      C        0.84260    0.92820    0.85930    1.000
    H25      H        0.84040    0.97160    0.88090    1.000
    C36      C        0.89100    0.93010    0.81170    1.000
    H26      H        0.92460    0.97300    0.80180    1.000
    C37      C        0.88970    0.86860    0.77880    1.000
    C38      C        0.84330    0.80560    0.79400    1.000
    H27      H        0.84060    0.76410    0.77060    1.000
    C39      C        0.80120    0.80340    0.84310    1.000
    H28      H        0.77410    0.75830    0.85470    1.000
    C40      C        0.93320    0.87180    0.72290    1.000
    C41      C        0.54380    0.86180    0.23140    1.000
    C42      C        0.60090    0.86230    0.27990    1.000
    C43      C        0.65020    0.92160    0.29410    1.000
    H29      H        0.64780    0.96500    0.27260    1.000
    C44      C        0.70590    0.92060    0.34080    1.000
    H30      H        0.74370    0.96210    0.34860    1.000
    C45      C        0.70630    0.86170    0.37450    1.000
    C46      C        0.65350    0.80040    0.36280    1.000
    H31      H        0.65280    0.75910    0.38650    1.000
    C47      C        0.60040    0.79960    0.31510    1.000
    H32      H        0.56430    0.75750    0.30650    1.000
    C48      C        0.76360    0.86370    0.42390    1.000
    C49      C        0.79270    0.93110    0.44430    1.000
    H33      H        0.77420    0.97600    0.42760    1.000
    C50      C        0.84940    0.93240    0.48960    1.000
    H34      H        0.87020    0.97870    0.50310    1.000
    C51      C        0.87560    0.86890    0.51500    1.000
    C52      C        0.84820    0.80100    0.49370    1.000
    H35      H        0.86830    0.75630    0.51000    1.000
    C53      C        0.79210    0.79850    0.44900    1.000
    H36      H        0.77280    0.75200    0.43510    1.000
    C54      C        0.93920    0.87060    0.56240    1.000
    Zn3      Zn       0.53416    0.55273    0.14361    1.000
    Zn4      Zn       0.96049    0.56038    0.64407    1.000
    Zn5      Zn       0.99629    0.75318    0.64498    1.000
    O13      O        0.83040    0.58540    0.65110    1.000
    O14      O        0.88240    0.69170    0.62049    1.000
    O15      O        0.16390    0.92170    0.64240    1.000
    O16      O        0.11440    0.81110    0.66666    1.000
    O17      O        0.02610    0.57490    0.57734    1.000
    O18      O        0.08410    0.68400    0.60216    1.000
    O19      O        0.47960    0.57030    0.21279    1.000
    O20      O        0.41160    0.67520    0.18780    1.000
    O21      O        0.03200    0.57800    0.70932    1.000
    O22      O        0.00560    0.69820    0.71767    1.000
    O23      O        0.45820    0.56820    0.08083    1.000
    O24      O        0.48320    0.68900    0.07465    1.000
    N3       N        0.96700    0.44691    0.64360    1.000
    N4       N        0.02620    0.06080    0.64320    1.000
    C55      C        0.01530    0.41230    0.60540    1.000
    H37      H        0.04180    0.44100    0.57740    1.000
    C56      C        0.02840    0.33600    0.60490    1.000
    H38      H        0.06220    0.31270    0.57690    1.000
    C57      C        0.99070    0.29530    0.64630    1.000
    C58      C        0.94050    0.33040    0.68610    1.000
    C59      C        0.89310    0.29110    0.73160    1.000
    H39      H        0.84860    0.25570    0.71690    1.000
    H40      H        0.93850    0.26460    0.75330    1.000
    H41      H        0.86110    0.32730    0.75410    1.000
    C60      C        0.93210    0.40640    0.68270    1.000
    H42      H        0.89910    0.43110    0.71030    1.000
    C61      C        0.97930    0.09550    0.60390    1.000
    H43      H        0.95470    0.06750    0.57500    1.000
    C62      C        0.96650    0.17110    0.60510    1.000
    H44      H        0.93140    0.19460    0.57790    1.000
    C63      C        0.00570    0.21340    0.64690    1.000
    C64      C        0.06050    0.17700    0.68470    1.000
    C65      C        0.11840    0.21620    0.72550    1.000
    H45      H        0.10870    0.26970    0.72250    1.000
    H46      H        0.10140    0.19960    0.76170    1.000
    H47      H        0.18320    0.20490    0.71890    1.000
    C66      C        0.06660    0.10070    0.68150    1.000
    H48      H        0.10140    0.07540    0.70810    1.000
    C67      C        0.81920    0.65170    0.63820    1.000
    C68      C        0.72410    0.68110    0.64050    1.000
    C69      C        0.65130    0.63740    0.65930    1.000
    H49      H        0.66290    0.58900    0.67250    1.000
    C70      C        0.56020    0.66540    0.65840    1.000
    H50      H        0.51090    0.63620    0.67170    1.000
    C71      C        0.54370    0.73650    0.63780    1.000
    C72      C        0.61790    0.78020    0.62030    1.000
    H51      H        0.60730    0.82880    0.60720    1.000
    C73      C        0.70600    0.75250    0.62220    1.000
    H52      H        0.75540    0.78290    0.61070    1.000
    C74      C        0.44840    0.76620    0.63970    1.000
    C75      C        0.43360    0.84200    0.64600    1.000
    H53      H        0.48450    0.87470    0.64790    1.000
    C76      C        0.34640    0.86980    0.64960    1.000
    H54      H        0.33730    0.92130    0.65500    1.000
    C77      C        0.27240    0.82370    0.64540    1.000
    C78      C        0.28510    0.74890    0.64030    1.000
    H55      H        0.23390    0.71640    0.63960    1.000
    C79      C        0.37450    0.72080    0.63620    1.000
    H56      H        0.38350    0.66920    0.63090    1.000
    C80      C        0.17630    0.85390    0.65110    1.000
    C81      C        0.07530    0.63350    0.56980    1.000
    C82      C        0.13410    0.63320    0.52110    1.000
    C83      C        0.14870    0.56830    0.49160    1.000
    H57      H        0.12090    0.52330    0.50280    1.000
    C84      C        0.20330    0.56900    0.44630    1.000
    H58      H        0.21440    0.52410    0.42750    1.000
    C85      C        0.24210    0.63430    0.42760    1.000
    C86      C        0.22540    0.70080    0.45550    1.000
    H59      H        0.25070    0.74610    0.44300    1.000
    C87      C        0.17080    0.69910    0.50230    1.000
    H60      H        0.15890    0.74380    0.52120    1.000
    C88      C        0.29670    0.63490    0.37690    1.000
    C89      C        0.34260    0.57180    0.35930    1.000
    H61      H        0.34040    0.52840    0.38090    1.000
    C90      C        0.39100    0.56990    0.31170    1.000
    H62      H        0.42460    0.52700    0.30180    1.000
    C91      C        0.38970    0.63140    0.27880    1.000
    C92      C        0.34330    0.69440    0.29400    1.000
    H63      H        0.34060    0.73590    0.27060    1.000
    C93      C        0.30120    0.69660    0.34310    1.000
    H64      H        0.27410    0.74170    0.35470    1.000
    C94      C        0.43320    0.62820    0.22290    1.000
    C95      C        0.04380    0.63820    0.73140    1.000
    C96      C        0.10090    0.63770    0.77990    1.000
    C97      C        0.15020    0.57840    0.79410    1.000
    H65      H        0.14780    0.53500    0.77260    1.000
    C98      C        0.20590    0.57940    0.84080    1.000
    H66      H        0.24370    0.53790    0.84860    1.000
    C99      C        0.20630    0.63830    0.87450    1.000
    C100     C        0.15350    0.69960    0.86280    1.000
    H67      H        0.15280    0.74090    0.88650    1.000
    C101     C        0.10040    0.70040    0.81510    1.000
    H68      H        0.06430    0.74250    0.80650    1.000
    C102     C        0.26360    0.63630    0.92390    1.000
    C103     C        0.29270    0.56890    0.94430    1.000
    H69      H        0.27420    0.52400    0.92760    1.000
    C104     C        0.34940    0.56760    0.98960    1.000
    H70      H        0.37020    0.52130    0.00310    1.000
    C105     C        0.37560    0.63110    0.01500    1.000
    C106     C        0.34820    0.69900    0.99370    1.000
    H71      H        0.36830    0.74370    0.01000    1.000
    C107     C        0.29210    0.70150    0.94900    1.000
    H72      H        0.27280    0.74800    0.93510    1.000
    C108     C        0.43920    0.62940    0.06240    1.000
    Zn6      Zn       0.03416    0.94727    0.64361    1.000
    Zn7      Zn       0.03951    0.43962    0.35593    1.000
    Zn8      Zn       0.00371    0.24682    0.35502    1.000
    O25      O        0.16960    0.41460    0.34890    1.000
    O26      O        0.11760    0.30830    0.37951    1.000
    O27      O        0.83610    0.07830    0.35760    1.000
    O28      O        0.88560    0.18890    0.33334    1.000
    O29      O        0.97390    0.42510    0.42266    1.000
    O30      O        0.91590    0.31600    0.39784    1.000
    O31      O        0.52040    0.42970    0.78721    1.000
    O32      O        0.58840    0.32480    0.81220    1.000
    O33      O        0.96800    0.42200    0.29068    1.000
    O34      O        0.99440    0.30180    0.28233    1.000
    O35      O        0.54180    0.43180    0.91917    1.000
    O36      O        0.51680    0.31100    0.92535    1.000
    N5       N        0.03300    0.55309    0.35640    1.000
    N6       N        0.97380    0.93920    0.35680    1.000
    C109     C        0.98470    0.58770    0.39460    1.000
    H73      H        0.95820    0.55900    0.42260    1.000
    C110     C        0.97160    0.66400    0.39510    1.000
    H74      H        0.93780    0.68730    0.42310    1.000
    C111     C        0.00930    0.70470    0.35370    1.000
    C112     C        0.05950    0.66960    0.31390    1.000
    C113     C        0.10690    0.70890    0.26840    1.000
    H75      H        0.15140    0.74430    0.28310    1.000
    H76      H        0.06150    0.73540    0.24670    1.000
    H77      H        0.13890    0.67270    0.24590    1.000
    C114     C        0.06790    0.59360    0.31730    1.000
    H78      H        0.10090    0.56890    0.28970    1.000
    C115     C        0.02070    0.90450    0.39610    1.000
    H79      H        0.04530    0.93250    0.42500    1.000
    C116     C        0.03350    0.82890    0.39490    1.000
    H80      H        0.06860    0.80540    0.42210    1.000
    C117     C        0.99430    0.78660    0.35310    1.000
    C118     C        0.93950    0.82300    0.31530    1.000
    C119     C        0.88160    0.78380    0.27450    1.000
    H81      H        0.89130    0.73030    0.27750    1.000
    H82      H        0.89860    0.80040    0.23830    1.000
    H83      H        0.81680    0.79510    0.28110    1.000
    C120     C        0.93340    0.89930    0.31850    1.000
    H84      H        0.89860    0.92460    0.29190    1.000
    C121     C        0.18080    0.34830    0.36180    1.000
    C122     C        0.27590    0.31890    0.35950    1.000
    C123     C        0.34870    0.36260    0.34070    1.000
    H85      H        0.33710    0.41100    0.32750    1.000
    C124     C        0.43980    0.33460    0.34160    1.000
    H86      H        0.48910    0.36380    0.32830    1.000
    C125     C        0.45630    0.26350    0.36220    1.000
    C126     C        0.38210    0.21980    0.37970    1.000
    H87      H        0.39270    0.17120    0.39280    1.000
    C127     C        0.29400    0.24750    0.37780    1.000
    H88      H        0.24460    0.21710    0.38930    1.000
    C128     C        0.55160    0.23380    0.36030    1.000
    C129     C        0.56640    0.15800    0.35400    1.000
    H89      H        0.51550    0.12530    0.35210    1.000
    C130     C        0.65360    0.13020    0.35040    1.000
    H90      H        0.66270    0.07870    0.34500    1.000
    C131     C        0.72760    0.17630    0.35460    1.000
    C132     C        0.71490    0.25110    0.35970    1.000
    H91      H        0.76610    0.28360    0.36040    1.000
    C133     C        0.62550    0.27920    0.36380    1.000
    H92      H        0.61650    0.33080    0.36910    1.000
    C134     C        0.82370    0.14610    0.34890    1.000
    C135     C        0.92470    0.36650    0.43020    1.000
    C136     C        0.86590    0.36680    0.47890    1.000
    C137     C        0.85130    0.43170    0.50840    1.000
    H93      H        0.87910    0.47670    0.49720    1.000
    C138     C        0.79670    0.43100    0.55370    1.000
    H94      H        0.78560    0.47590    0.57250    1.000
    C139     C        0.75790    0.36570    0.57240    1.000
    C140     C        0.77460    0.29920    0.54450    1.000
    H95      H        0.74930    0.25390    0.55700    1.000
    C141     C        0.82920    0.30090    0.49770    1.000
    H96      H        0.84110    0.25620    0.47880    1.000
    C142     C        0.70330    0.36510    0.62310    1.000
    C143     C        0.65740    0.42820    0.64070    1.000
    H97      H        0.65960    0.47160    0.61910    1.000
    C144     C        0.60900    0.43010    0.68830    1.000
    H98      H        0.57540    0.47300    0.69820    1.000
    C145     C        0.61030    0.36860    0.72120    1.000
    C146     C        0.65670    0.30560    0.70600    1.000
    H99      H        0.65940    0.26410    0.72940    1.000
    C147     C        0.69880    0.30340    0.65690    1.000
    H100     H        0.72590    0.25830    0.64530    1.000
    C148     C        0.56680    0.37180    0.77710    1.000
    C149     C        0.95620    0.36180    0.26860    1.000
    C150     C        0.89910    0.36230    0.22010    1.000
    C151     C        0.84980    0.42160    0.20590    1.000
    H101     H        0.85220    0.46500    0.22740    1.000
    C152     C        0.79410    0.42060    0.15920    1.000
    H102     H        0.75630    0.46210    0.15140    1.000
    C153     C        0.79370    0.36170    0.12550    1.000
    C154     C        0.84650    0.30040    0.13720    1.000
    H103     H        0.84720    0.25910    0.11350    1.000
    C155     C        0.89960    0.29960    0.18490    1.000
    H104     H        0.93570    0.25750    0.19350    1.000
    C156     C        0.73640    0.36370    0.07610    1.000
    C157     C        0.70730    0.43110    0.05570    1.000
    H105     H        0.72580    0.47600    0.07240    1.000
    C158     C        0.65060    0.43240    0.01040    1.000
    H106     H        0.62980    0.47870    0.99690    1.000
    C159     C        0.62440    0.36890    0.98500    1.000
    C160     C        0.65180    0.30100    0.00630    1.000
    H107     H        0.63170    0.25630    0.99000    1.000
    C161     C        0.70790    0.29850    0.05100    1.000
    H108     H        0.72720    0.25200    0.06490    1.000
    C162     C        0.56080    0.37060    0.93760    1.000
    Zn9      Zn       0.96584    0.05273    0.35639    1.000
    Zn10     Zn       0.53951    0.06038    0.85593    1.000
    Zn11     Zn       0.50371    0.25318    0.85502    1.000
    O37      O        0.66960    0.08540    0.84890    1.000
    O38      O        0.61760    0.19170    0.87951    1.000
    O39      O        0.33610    0.42170    0.85760    1.000
    O40      O        0.38560    0.31110    0.83334    1.000
    O41      O        0.47390    0.07490    0.92266    1.000
    O42      O        0.41590    0.18400    0.89784    1.000
    O43      O        0.02040    0.07030    0.28721    1.000
    O44      O        0.08840    0.17520    0.31220    1.000
    O45      O        0.46800    0.07800    0.79068    1.000
    O46      O        0.49440    0.19820    0.78233    1.000
    O47      O        0.04180    0.06820    0.41917    1.000
    O48      O        0.01680    0.18900    0.42535    1.000
    N7       N        0.53300    0.94691    0.85640    1.000
    N8       N        0.47380    0.56080    0.85680    1.000
    C163     C        0.48470    0.91230    0.89460    1.000
    H109     H        0.45820    0.94100    0.92260    1.000
    C164     C        0.47160    0.83600    0.89510    1.000
    H110     H        0.43780    0.81270    0.92310    1.000
    C165     C        0.50930    0.79530    0.85370    1.000
    C166     C        0.55950    0.83040    0.81390    1.000
    C167     C        0.60690    0.79110    0.76840    1.000
    H111     H        0.65140    0.75570    0.78310    1.000
    H112     H        0.56150    0.76460    0.74670    1.000
    H113     H        0.63890    0.82730    0.74590    1.000
    C168     C        0.56790    0.90640    0.81730    1.000
    H114     H        0.60090    0.93110    0.78970    1.000
    C169     C        0.52070    0.59550    0.89610    1.000
    H115     H        0.54530    0.56750    0.92500    1.000
    C170     C        0.53350    0.67110    0.89490    1.000
    H116     H        0.56860    0.69460    0.92210    1.000
    C171     C        0.49430    0.71340    0.85310    1.000
    C172     C        0.43950    0.67700    0.81530    1.000
    C173     C        0.38160    0.71620    0.77450    1.000
    H117     H        0.39130    0.76970    0.77750    1.000
    H118     H        0.39860    0.69960    0.73830    1.000
    H119     H        0.31680    0.70490    0.78110    1.000
    C174     C        0.43340    0.60070    0.81850    1.000
    H120     H        0.39860    0.57540    0.79190    1.000
    C175     C        0.68080    0.15170    0.86180    1.000
    C176     C        0.77590    0.18110    0.85950    1.000
    C177     C        0.84870    0.13740    0.84070    1.000
    H121     H        0.83710    0.08900    0.82750    1.000
    C178     C        0.93980    0.16540    0.84160    1.000
    H122     H        0.98910    0.13620    0.82830    1.000
    C179     C        0.95630    0.23650    0.86220    1.000
    C180     C        0.88210    0.28020    0.87970    1.000
    H123     H        0.89270    0.32880    0.89280    1.000
    C181     C        0.79400    0.25250    0.87780    1.000
    H124     H        0.74460    0.28290    0.88930    1.000
    C182     C        0.05160    0.26620    0.86030    1.000
    C183     C        0.06640    0.34200    0.85400    1.000
    H125     H        0.01550    0.37470    0.85210    1.000
    C184     C        0.15360    0.36980    0.85040    1.000
    H126     H        0.16270    0.42130    0.84500    1.000
    C185     C        0.22760    0.32370    0.85460    1.000
    C186     C        0.21490    0.24890    0.85970    1.000
    H127     H        0.26610    0.21640    0.86040    1.000
    C187     C        0.12550    0.22080    0.86380    1.000
    H128     H        0.11650    0.16920    0.86910    1.000
    C188     C        0.32370    0.35390    0.84890    1.000
    C189     C        0.42470    0.13350    0.93020    1.000
    C190     C        0.36590    0.13320    0.97890    1.000
    C191     C        0.35130    0.06830    0.00840    1.000
    H129     H        0.37910    0.02330    0.99720    1.000
    C192     C        0.29670    0.06900    0.05370    1.000
    H130     H        0.28560    0.02410    0.07250    1.000
    C193     C        0.25790    0.13430    0.07240    1.000
    C194     C        0.27460    0.20080    0.04450    1.000
    H131     H        0.24930    0.24610    0.05700    1.000
    C195     C        0.32920    0.19910    0.99770    1.000
    H132     H        0.34110    0.24380    0.97880    1.000
    C196     C        0.20330    0.13490    0.12310    1.000
    C197     C        0.15740    0.07180    0.14070    1.000
    H133     H        0.15960    0.02840    0.11910    1.000
    C198     C        0.10900    0.06990    0.18830    1.000
    H134     H        0.07540    0.02700    0.19820    1.000
    C199     C        0.11030    0.13140    0.22120    1.000
    C200     C        0.15670    0.19440    0.20600    1.000
    H135     H        0.15940    0.23590    0.22940    1.000
    C201     C        0.19880    0.19660    0.15690    1.000
    H136     H        0.22590    0.24170    0.14530    1.000
    C202     C        0.06680    0.12820    0.27710    1.000
    C203     C        0.45620    0.13820    0.76860    1.000
    C204     C        0.39910    0.13770    0.72010    1.000
    C205     C        0.34980    0.07840    0.70590    1.000
    H137     H        0.35220    0.03500    0.72740    1.000
    C206     C        0.29410    0.07940    0.65920    1.000
    H138     H        0.25630    0.03790    0.65140    1.000
    C207     C        0.29370    0.13830    0.62550    1.000
    C208     C        0.34650    0.19960    0.63720    1.000
    H139     H        0.34720    0.24090    0.61350    1.000
    C209     C        0.39960    0.20040    0.68490    1.000
    H140     H        0.43570    0.24250    0.69350    1.000
    C210     C        0.23640    0.13630    0.57610    1.000
    C211     C        0.20730    0.06890    0.55570    1.000
    H141     H        0.22580    0.02400    0.57240    1.000
    C212     C        0.15060    0.06760    0.51040    1.000
    H142     H        0.12980    0.02130    0.49690    1.000
    C213     C        0.12440    0.13110    0.48500    1.000
    C214     C        0.15180    0.19900    0.50630    1.000
    H143     H        0.13170    0.24370    0.49000    1.000
    C215     C        0.20790    0.20150    0.55100    1.000
    H144     H        0.22720    0.24800    0.56490    1.000
    C216     C        0.06080    0.12940    0.43760    1.000
    Zn12     Zn       0.46584    0.44727    0.85639    1.000
