# CIF file generated by openbabel 3.1.0, see https://openbabel.org
data_I
_chemical_name_common 'ITIWOY_charged'
_cell_length_a 15.8763
_cell_length_b 15.8763
_cell_length_c 21.507
_cell_angle_alpha 90
_cell_angle_beta 90
_cell_angle_gamma 90
_space_group_name_H-M_alt 'P 1'
_space_group_name_Hall 'P 1'
loop_
    _symmetry_equiv_pos_as_xyz
    x,y,z
loop_
    _atom_site_label
    _atom_site_type_symbol
    _atom_site_fract_x
    _atom_site_fract_y
    _atom_site_fract_z
    _atom_site_occupancy
    Cd1      Cd       0.44110    0.44110    0.00000    1.000
    Cd2      Cd       0.55890    0.55890    0.50000    1.000
    Cd3      Cd       0.05890    0.94110    0.25000    1.000
    Cd4      Cd       0.94110    0.05890    0.75000    1.000
    H1       H        0.98670    0.76830    0.32660    1.000
    H2       H        0.89310    0.65500    0.31720    1.000
    H3       H        0.85060    0.72920    0.13980    1.000
    H4       H        0.94650    0.83660    0.15470    1.000
    H5       H        0.83610    0.53670    0.29060    1.000
    H6       H        0.73250    0.43290    0.27750    1.000
    H7       H        0.62270    0.45430    0.20910    1.000
    H8       H        0.72420    0.67490    0.15530    1.000
    H9       H        0.50500    0.69960    0.95600    1.000
    H10      H        0.41240    0.79850    0.91310    1.000
    H11      H        0.29860    0.84630    0.96680    1.000
    H12      H        0.36230    0.69720    0.11250    1.000
    H13      H        0.21400    0.91120    0.03170    1.000
    H14      H        0.11100    0.96150    0.09790    1.000
    H15      H        0.14220    0.77110    0.21120    1.000
    H16      H        0.24290    0.71230    0.14780    1.000
    H17      H        0.59730    0.76010    0.09690    1.000
    H18      H        0.53130    0.75400    0.14570    1.000
    H19      H        0.01330    0.23170    0.82660    1.000
    H20      H        0.10690    0.34500    0.81720    1.000
    H21      H        0.14940    0.27080    0.63980    1.000
    H22      H        0.05350    0.16340    0.65470    1.000
    H23      H        0.16390    0.46330    0.79060    1.000
    H24      H        0.26750    0.56710    0.77750    1.000
    H25      H        0.37730    0.54570    0.70910    1.000
    H26      H        0.27580    0.32510    0.65530    1.000
    H27      H        0.49500    0.30040    0.45600    1.000
    H28      H        0.58760    0.20150    0.41310    1.000
    H29      H        0.70140    0.15370    0.46680    1.000
    H30      H        0.63770    0.30280    0.61250    1.000
    H31      H        0.78600    0.08880    0.53170    1.000
    H32      H        0.88900    0.03850    0.59790    1.000
    H33      H        0.85780    0.22890    0.71120    1.000
    H34      H        0.75710    0.28770    0.64780    1.000
    H35      H        0.40270    0.23990    0.59690    1.000
    H36      H        0.46870    0.24600    0.64570    1.000
    H37      H        0.73170    0.48670    0.57660    1.000
    H38      H        0.84500    0.39310    0.56720    1.000
    H39      H        0.77080    0.35060    0.38980    1.000
    H40      H        0.66340    0.44650    0.40470    1.000
    H41      H        0.96330    0.33610    0.54060    1.000
    H42      H        0.06710    0.23250    0.52750    1.000
    H43      H        0.04570    0.12270    0.45910    1.000
    H44      H        0.82510    0.22420    0.40530    1.000
    H45      H        0.80040    0.00500    0.20600    1.000
    H46      H        0.70150    0.91240    0.16310    1.000
    H47      H        0.65370    0.79860    0.21680    1.000
    H48      H        0.80280    0.86230    0.36250    1.000
    H49      H        0.58880    0.71400    0.28170    1.000
    H50      H        0.53850    0.61100    0.34790    1.000
    H51      H        0.72890    0.64220    0.46120    1.000
    H52      H        0.78770    0.74290    0.39780    1.000
    H53      H        0.73990    0.09730    0.34690    1.000
    H54      H        0.74600    0.03130    0.39570    1.000
    H55      H        0.26830    0.51330    0.07660    1.000
    H56      H        0.15500    0.60690    0.06720    1.000
    H57      H        0.22920    0.64940    0.88980    1.000
    H58      H        0.33660    0.55350    0.90470    1.000
    H59      H        0.03670    0.66390    0.04060    1.000
    H60      H        0.93290    0.76750    0.02750    1.000
    H61      H        0.95430    0.87730    0.95910    1.000
    H62      H        0.17490    0.77580    0.90530    1.000
    H63      H        0.19960    0.99500    0.70600    1.000
    H64      H        0.29850    0.08760    0.66310    1.000
    H65      H        0.34630    0.20140    0.71680    1.000
    H66      H        0.19720    0.13770    0.86250    1.000
    H67      H        0.41120    0.28600    0.78170    1.000
    H68      H        0.46150    0.38900    0.84790    1.000
    H69      H        0.27110    0.35780    0.96120    1.000
    H70      H        0.21230    0.25710    0.89780    1.000
    H71      H        0.26010    0.90270    0.84690    1.000
    H72      H        0.25400    0.96870    0.89570    1.000
    H73      H        0.51330    0.26830    0.92340    1.000
    H74      H        0.60690    0.15500    0.93280    1.000
    H75      H        0.64940    0.22920    0.11020    1.000
    H76      H        0.55350    0.33660    0.09530    1.000
    H77      H        0.66390    0.03670    0.95940    1.000
    H78      H        0.76750    0.93290    0.97250    1.000
    H79      H        0.87730    0.95430    0.04090    1.000
    H80      H        0.77580    0.17490    0.09470    1.000
    H81      H        0.99500    0.19960    0.29400    1.000
    H82      H        0.08760    0.29850    0.33690    1.000
    H83      H        0.20140    0.34630    0.28320    1.000
    H84      H        0.13770    0.19720    0.13750    1.000
    H85      H        0.28600    0.41120    0.21830    1.000
    H86      H        0.38900    0.46150    0.15210    1.000
    H87      H        0.35780    0.27110    0.03880    1.000
    H88      H        0.25710    0.21230    0.10220    1.000
    H89      H        0.90270    0.26010    0.15310    1.000
    H90      H        0.96870    0.25400    0.10430    1.000
    H91      H        0.48670    0.73170    0.42340    1.000
    H92      H        0.39310    0.84500    0.43280    1.000
    H93      H        0.35060    0.77080    0.61020    1.000
    H94      H        0.44650    0.66340    0.59530    1.000
    H95      H        0.33610    0.96330    0.45940    1.000
    H96      H        0.23250    0.06710    0.47250    1.000
    H97      H        0.12270    0.04570    0.54090    1.000
    H98      H        0.22420    0.82510    0.59470    1.000
    H99      H        0.00500    0.80040    0.79400    1.000
    H100     H        0.91240    0.70150    0.83690    1.000
    H101     H        0.79860    0.65370    0.78320    1.000
    H102     H        0.86230    0.80280    0.63750    1.000
    H103     H        0.71400    0.58880    0.71830    1.000
    H104     H        0.61100    0.53850    0.65210    1.000
    H105     H        0.64220    0.72890    0.53880    1.000
    H106     H        0.74290    0.78770    0.60220    1.000
    H107     H        0.09730    0.73990    0.65310    1.000
    H108     H        0.03130    0.74600    0.60430    1.000
    H109     H        0.76830    0.98670    0.67340    1.000
    H110     H        0.65500    0.89310    0.68280    1.000
    H111     H        0.72920    0.85060    0.86020    1.000
    H112     H        0.83660    0.94650    0.84530    1.000
    H113     H        0.53670    0.83610    0.70940    1.000
    H114     H        0.43290    0.73250    0.72250    1.000
    H115     H        0.45430    0.62270    0.79090    1.000
    H116     H        0.67490    0.72420    0.84470    1.000
    H117     H        0.69960    0.50500    0.04400    1.000
    H118     H        0.79850    0.41240    0.08690    1.000
    H119     H        0.84630    0.29860    0.03320    1.000
    H120     H        0.69720    0.36230    0.88750    1.000
    H121     H        0.91120    0.21400    0.96830    1.000
    H122     H        0.96150    0.11100    0.90210    1.000
    H123     H        0.77110    0.14220    0.78880    1.000
    H124     H        0.71230    0.24290    0.85220    1.000
    H125     H        0.76010    0.59730    0.90310    1.000
    H126     H        0.75400    0.53130    0.85430    1.000
    H127     H        0.23170    0.01330    0.17340    1.000
    H128     H        0.34500    0.10690    0.18280    1.000
    H129     H        0.27080    0.14940    0.36020    1.000
    H130     H        0.16340    0.05350    0.34530    1.000
    H131     H        0.46330    0.16390    0.20940    1.000
    H132     H        0.56710    0.26750    0.22250    1.000
    H133     H        0.54570    0.37730    0.29090    1.000
    H134     H        0.32510    0.27580    0.34470    1.000
    H135     H        0.30040    0.49500    0.54400    1.000
    H136     H        0.20150    0.58760    0.58690    1.000
    H137     H        0.15370    0.70140    0.53320    1.000
    H138     H        0.30280    0.63770    0.38750    1.000
    H139     H        0.08880    0.78600    0.46830    1.000
    H140     H        0.03850    0.88900    0.40210    1.000
    H141     H        0.22890    0.85780    0.28880    1.000
    H142     H        0.28770    0.75710    0.35220    1.000
    H143     H        0.23990    0.40270    0.40310    1.000
    H144     H        0.24600    0.46870    0.35430    1.000
    C1       C        0.95840    0.76020    0.28820    1.000
    C2       C        0.90160    0.69220    0.28320    1.000
    C3       C        0.85860    0.68060    0.22820    1.000
    C4       C        0.87720    0.73590    0.17900    1.000
    C5       C        0.93450    0.79980    0.18840    1.000
    C6       C        0.79270    0.61430    0.22190    1.000
    C7       C        0.79330    0.54360    0.26010    1.000
    C8       C        0.73040    0.48300    0.25350    1.000
    C9       C        0.66600    0.49530    0.21250    1.000
    C10      C        0.66280    0.56640    0.17590    1.000
    C11      C        0.72610    0.62580    0.18050    1.000
    C12      C        0.59210    0.57540    0.13170    1.000
    C13      C        0.49720    0.62590    0.06960    1.000
    C14      C        0.44160    0.68900    0.03930    1.000
    C15      C        0.45770    0.71900    0.97900    1.000
    C16      C        0.40240    0.77780    0.95390    1.000
    C17      C        0.33510    0.80640    0.98560    1.000
    C18      C        0.31790    0.77750    0.04710    1.000
    C19      C        0.37260    0.71830    0.07190    1.000
    C20      C        0.24620    0.80840    0.08390    1.000
    C21      C        0.20190    0.88180    0.06910    1.000
    C22      C        0.14020    0.91150    0.10910    1.000
    C23      C        0.15820    0.80050    0.17450    1.000
    C24      C        0.21920    0.76540    0.13740    1.000
    C25      C        0.04160    0.23980    0.78820    1.000
    C26      C        0.09840    0.30780    0.78320    1.000
    C27      C        0.14140    0.31940    0.72820    1.000
    C28      C        0.12280    0.26410    0.67900    1.000
    C29      C        0.06550    0.20020    0.68840    1.000
    C30      C        0.20730    0.38570    0.72190    1.000
    C31      C        0.20670    0.45640    0.76010    1.000
    C32      C        0.26960    0.51700    0.75350    1.000
    C33      C        0.33400    0.50470    0.71250    1.000
    C34      C        0.33720    0.43360    0.67590    1.000
    C35      C        0.27390    0.37420    0.68050    1.000
    C36      C        0.40790    0.42460    0.63170    1.000
    C37      C        0.50280    0.37410    0.56960    1.000
    C38      C        0.55840    0.31100    0.53930    1.000
    C39      C        0.54230    0.28100    0.47900    1.000
    C40      C        0.59760    0.22220    0.45390    1.000
    C41      C        0.66490    0.19360    0.48560    1.000
    C42      C        0.68210    0.22250    0.54710    1.000
    C43      C        0.62740    0.28170    0.57190    1.000
    C44      C        0.75380    0.19160    0.58390    1.000
    C45      C        0.79810    0.11820    0.56910    1.000
    C46      C        0.85980    0.08850    0.60910    1.000
    C47      C        0.84180    0.19950    0.67450    1.000
    C48      C        0.78080    0.23460    0.63740    1.000
    C49      C        0.73980    0.45840    0.53820    1.000
    C50      C        0.80780    0.40160    0.53320    1.000
    C51      C        0.81940    0.35860    0.47820    1.000
    C52      C        0.76410    0.37720    0.42900    1.000
    C53      C        0.70020    0.43450    0.43840    1.000
    C54      C        0.88570    0.29270    0.47190    1.000
    C55      C        0.95640    0.29330    0.51010    1.000
    C56      C        0.01700    0.23040    0.50350    1.000
    C57      C        0.00470    0.16600    0.46250    1.000
    C58      C        0.93360    0.16280    0.42590    1.000
    C59      C        0.87420    0.22610    0.43050    1.000
    C60      C        0.92460    0.09210    0.38170    1.000
    C61      C        0.87410    0.99720    0.31960    1.000
    C62      C        0.81100    0.94160    0.28930    1.000
    C63      C        0.78100    0.95770    0.22900    1.000
    C64      C        0.72220    0.90240    0.20390    1.000
    C65      C        0.69360    0.83510    0.23560    1.000
    C66      C        0.72250    0.81790    0.29710    1.000
    C67      C        0.78170    0.87260    0.32190    1.000
    C68      C        0.69160    0.74620    0.33390    1.000
    C69      C        0.61820    0.70190    0.31910    1.000
    C70      C        0.58850    0.64020    0.35910    1.000
    C71      C        0.69950    0.65820    0.42450    1.000
    C72      C        0.73460    0.71920    0.38740    1.000
    C73      C        0.26020    0.54160    0.03820    1.000
    C74      C        0.19220    0.59840    0.03320    1.000
    C75      C        0.18060    0.64140    0.97820    1.000
    C76      C        0.23590    0.62280    0.92900    1.000
    C77      C        0.29980    0.56550    0.93840    1.000
    C78      C        0.11430    0.70730    0.97190    1.000
    C79      C        0.04360    0.70670    0.01010    1.000
    C80      C        0.98300    0.76960    0.00350    1.000
    C81      C        0.99530    0.83400    0.96250    1.000
    C82      C        0.06640    0.83720    0.92590    1.000
    C83      C        0.12580    0.77390    0.93050    1.000
    C84      C        0.07540    0.90790    0.88170    1.000
    C85      C        0.12590    0.00280    0.81960    1.000
    C86      C        0.18900    0.05840    0.78930    1.000
    C87      C        0.21900    0.04230    0.72900    1.000
    C88      C        0.27780    0.09760    0.70390    1.000
    C89      C        0.30640    0.16490    0.73560    1.000
    C90      C        0.27750    0.18210    0.79710    1.000
    C91      C        0.21830    0.12740    0.82190    1.000
    C92      C        0.30840    0.25380    0.83390    1.000
    C93      C        0.38180    0.29810    0.81910    1.000
    C94      C        0.41150    0.35980    0.85910    1.000
    C95      C        0.30050    0.34180    0.92450    1.000
    C96      C        0.26540    0.28080    0.88740    1.000
    C97      C        0.54160    0.26020    0.96180    1.000
    C98      C        0.59840    0.19220    0.96680    1.000
    C99      C        0.64140    0.18060    0.02180    1.000
    C100     C        0.62280    0.23590    0.07100    1.000
    C101     C        0.56550    0.29980    0.06160    1.000
    C102     C        0.70730    0.11430    0.02810    1.000
    C103     C        0.70670    0.04360    0.98990    1.000
    C104     C        0.76960    0.98300    0.99650    1.000
    C105     C        0.83400    0.99530    0.03750    1.000
    C106     C        0.83720    0.06640    0.07410    1.000
    C107     C        0.77390    0.12580    0.06950    1.000
    C108     C        0.90790    0.07540    0.11830    1.000
    C109     C        0.00280    0.12590    0.18040    1.000
    C110     C        0.05840    0.18900    0.21070    1.000
    C111     C        0.04230    0.21900    0.27100    1.000
    C112     C        0.09760    0.27780    0.29610    1.000
    C113     C        0.16490    0.30640    0.26440    1.000
    C114     C        0.18210    0.27750    0.20290    1.000
    C115     C        0.12740    0.21830    0.17810    1.000
    C116     C        0.25380    0.30840    0.16610    1.000
    C117     C        0.29810    0.38180    0.18090    1.000
    C118     C        0.35980    0.41150    0.14090    1.000
    C119     C        0.34180    0.30050    0.07550    1.000
    C120     C        0.28080    0.26540    0.11260    1.000
    C121     C        0.45840    0.73980    0.46180    1.000
    C122     C        0.40160    0.80780    0.46680    1.000
    C123     C        0.35860    0.81940    0.52180    1.000
    C124     C        0.37720    0.76410    0.57100    1.000
    C125     C        0.43450    0.70020    0.56160    1.000
    C126     C        0.29270    0.88570    0.52810    1.000
    C127     C        0.29330    0.95640    0.48990    1.000
    C128     C        0.23040    0.01700    0.49650    1.000
    C129     C        0.16600    0.00470    0.53750    1.000
    C130     C        0.16280    0.93360    0.57410    1.000
    C131     C        0.22610    0.87420    0.56950    1.000
    C132     C        0.09210    0.92460    0.61830    1.000
    C133     C        0.99720    0.87410    0.68040    1.000
    C134     C        0.94160    0.81100    0.71070    1.000
    C135     C        0.95770    0.78100    0.77100    1.000
    C136     C        0.90240    0.72220    0.79610    1.000
    C137     C        0.83510    0.69360    0.76440    1.000
    C138     C        0.81790    0.72250    0.70290    1.000
    C139     C        0.87260    0.78170    0.67810    1.000
    C140     C        0.74620    0.69160    0.66610    1.000
    C141     C        0.70190    0.61820    0.68090    1.000
    C142     C        0.64020    0.58850    0.64090    1.000
    C143     C        0.65820    0.69950    0.57550    1.000
    C144     C        0.71920    0.73460    0.61260    1.000
    C145     C        0.76020    0.95840    0.71180    1.000
    C146     C        0.69220    0.90160    0.71680    1.000
    C147     C        0.68060    0.85860    0.77180    1.000
    C148     C        0.73590    0.87720    0.82100    1.000
    C149     C        0.79980    0.93450    0.81160    1.000
    C150     C        0.61430    0.79270    0.77810    1.000
    C151     C        0.54360    0.79330    0.73990    1.000
    C152     C        0.48300    0.73040    0.74650    1.000
    C153     C        0.49530    0.66600    0.78750    1.000
    C154     C        0.56640    0.66280    0.82410    1.000
    C155     C        0.62580    0.72610    0.81950    1.000
    C156     C        0.57540    0.59210    0.86830    1.000
    C157     C        0.62590    0.49720    0.93040    1.000
    C158     C        0.68900    0.44160    0.96070    1.000
    C159     C        0.71900    0.45770    0.02100    1.000
    C160     C        0.77780    0.40240    0.04610    1.000
    C161     C        0.80640    0.33510    0.01440    1.000
    C162     C        0.77750    0.31790    0.95290    1.000
    C163     C        0.71830    0.37260    0.92810    1.000
    C164     C        0.80840    0.24620    0.91610    1.000
    C165     C        0.88180    0.20190    0.93090    1.000
    C166     C        0.91150    0.14020    0.89090    1.000
    C167     C        0.80050    0.15820    0.82550    1.000
    C168     C        0.76540    0.21920    0.86260    1.000
    C169     C        0.23980    0.04160    0.21180    1.000
    C170     C        0.30780    0.09840    0.21680    1.000
    C171     C        0.31940    0.14140    0.27180    1.000
    C172     C        0.26410    0.12280    0.32100    1.000
    C173     C        0.20020    0.06550    0.31160    1.000
    C174     C        0.38570    0.20730    0.27810    1.000
    C175     C        0.45640    0.20670    0.23990    1.000
    C176     C        0.51700    0.26960    0.24650    1.000
    C177     C        0.50470    0.33400    0.28750    1.000
    C178     C        0.43360    0.33720    0.32410    1.000
    C179     C        0.37420    0.27390    0.31950    1.000
    C180     C        0.42460    0.40790    0.36830    1.000
    C181     C        0.37410    0.50280    0.43040    1.000
    C182     C        0.31100    0.55840    0.46070    1.000
    C183     C        0.28100    0.54230    0.52100    1.000
    C184     C        0.22220    0.59760    0.54610    1.000
    C185     C        0.19360    0.66490    0.51440    1.000
    C186     C        0.22250    0.68210    0.45290    1.000
    C187     C        0.28170    0.62740    0.42810    1.000
    C188     C        0.19160    0.75380    0.41610    1.000
    C189     C        0.11820    0.79810    0.43090    1.000
    C190     C        0.08850    0.85980    0.39090    1.000
    C191     C        0.19950    0.84180    0.32550    1.000
    C192     C        0.23460    0.78080    0.36260    1.000
    N1       N        0.55370    0.51150    0.10560    1.000
    N2       N        0.49290    0.54350    0.06720    1.000
    N3       N        0.55850    0.64730    0.11000    1.000
    N4       N        0.57830    0.72930    0.12980    1.000
    N5       N        0.97420    0.81270    0.24260    1.000
    N6       N        0.11960    0.87410    0.16210    1.000
    N7       N        0.44630    0.48850    0.60560    1.000
    N8       N        0.50710    0.45650    0.56720    1.000
    N9       N        0.44150    0.35270    0.61000    1.000
    N10      N        0.42170    0.27070    0.62980    1.000
    N11      N        0.02580    0.18730    0.74260    1.000
    N12      N        0.88040    0.12590    0.66210    1.000
    N13      N        0.98850    0.05370    0.35560    1.000
    N14      N        0.95650    0.99290    0.31720    1.000
    N15      N        0.85270    0.05850    0.36000    1.000
    N16      N        0.77070    0.07830    0.37980    1.000
    N17      N        0.68730    0.47420    0.49260    1.000
    N18      N        0.62590    0.61960    0.41210    1.000
    N19      N        0.01150    0.94630    0.85560    1.000
    N20      N        0.04350    0.00710    0.81720    1.000
    N21      N        0.14730    0.94150    0.86000    1.000
    N22      N        0.22930    0.92170    0.87980    1.000
    N23      N        0.31270    0.52580    0.99260    1.000
    N24      N        0.37410    0.38040    0.91210    1.000
    N25      N        0.94630    0.01150    0.14440    1.000
    N26      N        0.00710    0.04350    0.18280    1.000
    N27      N        0.94150    0.14730    0.14000    1.000
    N28      N        0.92170    0.22930    0.12020    1.000
    N29      N        0.52580    0.31270    0.00740    1.000
    N30      N        0.38040    0.37410    0.08790    1.000
    N31      N        0.05370    0.98850    0.64440    1.000
    N32      N        0.99290    0.95650    0.68280    1.000
    N33      N        0.05850    0.85270    0.64000    1.000
    N34      N        0.07830    0.77070    0.62020    1.000
    N35      N        0.47420    0.68730    0.50740    1.000
    N36      N        0.61960    0.62590    0.58790    1.000
    N37      N        0.51150    0.55370    0.89440    1.000
    N38      N        0.54350    0.49290    0.93280    1.000
    N39      N        0.64730    0.55850    0.89000    1.000
    N40      N        0.72930    0.57830    0.87020    1.000
    N41      N        0.81270    0.97420    0.75740    1.000
    N42      N        0.87410    0.11960    0.83790    1.000
    N43      N        0.48850    0.44630    0.39440    1.000
    N44      N        0.45650    0.50710    0.43280    1.000
    N45      N        0.35270    0.44150    0.39000    1.000
    N46      N        0.27070    0.42170    0.37020    1.000
    N47      N        0.18730    0.02580    0.25740    1.000
    N48      N        0.12590    0.88040    0.33790    1.000
    Cl1      Cl       0.61860    0.38140    0.75000    1.000
    O1       O        0.61400    0.31580    0.78710    1.000
    O2       O        0.65000    0.44170    0.78620    1.000
    O3       O        0.68420    0.38600    0.71290    1.000
    O4       O        0.55830    0.35000    0.71380    1.000
    Cl2      Cl       0.38140    0.61860    0.25000    1.000
    O5       O        0.38600    0.68420    0.28710    1.000
    O6       O        0.35000    0.55830    0.28620    1.000
    O7       O        0.31580    0.61400    0.21290    1.000
    O8       O        0.44170    0.65000    0.21380    1.000
    Cl3      Cl       0.11860    0.11860    0.00000    1.000
    O9       O        0.18420    0.11400    0.03710    1.000
    O10      O        0.05830    0.15000    0.03620    1.000
    O11      O        0.11400    0.18420    0.96290    1.000
    O12      O        0.15000    0.05830    0.96380    1.000
    Cl4      Cl       0.88140    0.88140    0.50000    1.000
    O13      O        0.81580    0.88600    0.53710    1.000
    O14      O        0.94170    0.85000    0.53620    1.000
    O15      O        0.88600    0.81580    0.46290    1.000
    O16      O        0.85000    0.94170    0.46380    1.000
