# CIF file generated by openbabel 3.1.0, see https://openbabel.org
data_I
_chemical_name_common 'image0'
_cell_length_a 28.95
_cell_length_b 39.508
_cell_length_c 10.2785
_cell_angle_alpha 90
_cell_angle_beta 95.737
_cell_angle_gamma 90
_space_group_name_H-M_alt 'P 1'
_space_group_name_Hall 'P 1'
loop_
    _symmetry_equiv_pos_as_xyz
    x,y,z
loop_
    _atom_site_label
    _atom_site_type_symbol
    _atom_site_fract_x
    _atom_site_fract_y
    _atom_site_fract_z
    _atom_site_occupancy
    Cd1      Cd       0.23966    0.67604    0.94463    1.000
    Cd2      Cd       0.23216    0.68634    0.45716    1.000
    O1       O        0.30626    0.67952    0.57230    1.000
    O2       O        0.30185    0.66966    0.36290    1.000
    O3       O        0.17394    0.68258    0.30280    1.000
    O4       O        0.19887    0.69567    0.11080    1.000
    O5       O        0.17733    0.67064    0.79460    1.000
    O6       O        0.19766    0.70381    0.63400    1.000
    N1       N        0.22594    0.62129    0.01340    1.000
    N2       N        0.13824    0.42779    0.24480    1.000
    N3       N        0.23753    0.23044    0.09360    1.000
    N4       N        0.21525    0.62965    0.50020    1.000
    N5       N        0.13690    0.43360    0.74410    1.000
    N6       N        0.25320    0.24201    0.58890    1.000
    C1       C        0.22947    0.61289    0.13870    1.000
    H1       H        0.23840    0.62960    0.20000    1.000
    C2       C        0.22084    0.58161    0.18280    1.000
    H2       H        0.22420    0.57730    0.27220    1.000
    C3       C        0.20707    0.55583    0.09620    1.000
    C4       C        0.20300    0.56477    0.96460    1.000
    H3       H        0.19430    0.54860    0.90130    1.000
    C5       C        0.21180    0.59758    0.92730    1.000
    H4       H        0.20770    0.60320    0.83900    1.000
    C6       C        0.19288    0.52138    0.13870    1.000
    C7       C        0.17803    0.51673    0.26060    1.000
    H5       H        0.17890    0.53490    0.31820    1.000
    C8       C        0.16192    0.48592    0.30020    1.000
    H6       H        0.15260    0.48350    0.38370    1.000
    C9       C        0.15957    0.45811    0.21420    1.000
    C10      C        0.17828    0.46247    0.09430    1.000
    H7       H        0.17960    0.44410    0.03850    1.000
    C11      C        0.19463    0.49341    0.05760    1.000
    H8       H        0.20690    0.49560    0.97780    1.000
    C12      C        0.15561    0.39637    0.20820    1.000
    C13      C        0.20178    0.38910    0.22900    1.000
    H9       H        0.22230    0.40590    0.26210    1.000
    C14      C        0.21904    0.35735    0.20220    1.000
    H10      H        0.25070    0.35300    0.21620    1.000
    C15      C        0.18862    0.33212    0.15450    1.000
    C16      C        0.14242    0.33968    0.12820    1.000
    H11      H        0.12210    0.32300    0.09330    1.000
    C17      C        0.12551    0.37135    0.15240    1.000
    H12      H        0.09420    0.37620    0.13180    1.000
    C18      C        0.20606    0.29673    0.13330    1.000
    C19      C        0.25242    0.28957    0.11900    1.000
    H13      H        0.27420    0.30690    0.12290    1.000
    C20      C        0.26562    0.25718    0.09930    1.000
    H14      H        0.29670    0.25340    0.08890    1.000
    C21      C        0.19454    0.23729    0.11150    1.000
    H15      H        0.17390    0.21920    0.11100    1.000
    C22      C        0.17759    0.26842    0.13070    1.000
    H16      H        0.14630    0.27100    0.14240    1.000
    C23      C        0.09787    0.42898    0.31630    1.000
    C24      C        0.06706    0.45563    0.30770    1.000
    H17      H        0.07150    0.47350    0.25140    1.000
    C25      C        0.02924    0.45635    0.38180    1.000
    H18      H        0.01010    0.47530    0.37770    1.000
    C26      C        0.01963    0.42985    0.46060    1.000
    C27      C        0.04945    0.40212    0.46290    1.000
    H19      H        0.04280    0.38310    0.51110    1.000
    C28      C        0.08811    0.40193    0.39680    1.000
    H20      H        0.10820    0.38350    0.40540    1.000
    C29      C        0.24652    0.60699    0.54910    1.000
    H21      H        0.27760    0.61340    0.55990    1.000
    C30      C        0.23535    0.57474    0.58430    1.000
    H22      H        0.25870    0.56010    0.61800    1.000
    C31      C        0.18985    0.56361    0.57030    1.000
    C32      C        0.15758    0.58702    0.51800    1.000
    H23      H        0.12630    0.58130    0.50630    1.000
    C33      C        0.17147    0.61844    0.48350    1.000
    H24      H        0.14890    0.63310    0.44560    1.000
    C34      C        0.17758    0.52912    0.61160    1.000
    C35      C        0.21003    0.50572    0.66060    1.000
    H25      H        0.24140    0.51120    0.66590    1.000
    C36      C        0.19682    0.47454    0.70160    1.000
    H26      H        0.21950    0.45940    0.73570    1.000
    C37      C        0.15079    0.46487    0.69370    1.000
    C38      C        0.11721    0.48726    0.63940    1.000
    H27      H        0.08620    0.48080    0.62950    1.000
    C39      C        0.12966    0.51855    0.60060    1.000
    H28      H        0.10680    0.53350    0.56630    1.000
    C40      C        0.16413    0.40370    0.72450    1.000
    C41      C        0.17052    0.37877    0.82460    1.000
    H29      H        0.16050    0.38270    0.90640    1.000
    C42      C        0.19157    0.34905    0.79850    1.000
    H30      H        0.19550    0.33280    0.86430    1.000
    C43      C        0.20751    0.34178    0.67860    1.000
    C44      C        0.20334    0.36794    0.58350    1.000
    H31      H        0.21480    0.36450    0.50320    1.000
    C45      C        0.18288    0.39784    0.60820    1.000
    H32      H        0.18150    0.41480    0.54530    1.000
    C46      C        0.22567    0.30848    0.64860    1.000
    C47      C        0.22560    0.28164    0.73730    1.000
    H33      H        0.21590    0.28560    0.81950    1.000
    C48      C        0.23944    0.24964    0.70630    1.000
    H34      H        0.23930    0.23270    0.76890    1.000
    C49      C        0.25170    0.26694    0.50270    1.000
    H35      H        0.26110    0.26210    0.42080    1.000
    C50      C        0.23740    0.29909    0.52460    1.000
    H36      H        0.23550    0.31490    0.45710    1.000
    C51      C        0.09712    0.43185    0.81430    1.000
    C52      C        0.08577    0.45918    0.88950    1.000
    H37      H        0.10450    0.47840    0.89360    1.000
    C53      C        0.04740    0.45848    0.95810    1.000
    H38      H        0.03960    0.47770    0.00350    1.000
    C54      C        0.02022    0.42985    0.96100    1.000
    C55      C        0.03232    0.40277    0.88890    1.000
    H39      H        0.01450    0.38320    0.88920    1.000
    C56      C        0.07028    0.40324    0.81470    1.000
    H40      H        0.07720    0.38440    0.76610    1.000
    C57      C        0.32494    0.67280    0.47250    1.000
    C58      C        0.37727    0.66897    0.48020    1.000
    C59      C        0.40002    0.66138    0.37290    1.000
    H41      H        0.38250    0.65770    0.29330    1.000
    C60      C        0.44696    0.65907    0.37800    1.000
    H42      H        0.46080    0.65400    0.30240    1.000
    C61      C        0.47492    0.66420    0.49630    1.000
    C62      C        0.45155    0.67270    0.60650    1.000
    H43      H        0.46880    0.67670    0.68630    1.000
    C63      C        0.40348    0.67521    0.59820    1.000
    H44      H        0.38890    0.68110    0.67160    1.000
    C64      C        0.16776    0.69027    0.18350    1.000
    C65      C        0.11794    0.69387    0.12670    1.000
    C66      C        0.08388    0.68970    0.20650    1.000
    H45      H        0.09140    0.68390    0.29380    1.000
    C67      C        0.03739    0.69400    0.15760    1.000
    H46      H        0.01430    0.69250    0.21410    1.000
    C68      C        0.02533    0.70061    0.02740    1.000
    C69      C        0.06066    0.70503    0.94700    1.000
    H47      H        0.05340    0.71000    0.85880    1.000
    C70      C        0.10577    0.70218    0.99650    1.000
    H48      H        0.12900    0.70590    0.94190    1.000
    C71      C        0.16869    0.68669    0.69130    1.000
    C72      C        0.11787    0.68840    0.63360    1.000
    C73      C        0.08964    0.66028    0.64400    1.000
    H49      H        0.10190    0.64130    0.68860    1.000
    C74      C        0.04444    0.65957    0.59090    1.000
    H50      H        0.02680    0.64000    0.59550    1.000
    C75      C        0.02457    0.68912    0.52850    1.000
    C76      C        0.05225    0.71572    0.52050    1.000
    H51      H        0.04010    0.73540    0.48070    1.000
    C77      C        0.09947    0.71527    0.57040    1.000
    H52      H        0.11800    0.73410    0.55870    1.000
    Cd3      Cd       0.73966    0.17604    0.94463    1.000
    Cd4      Cd       0.73216    0.18634    0.45716    1.000
    O7       O        0.80626    0.17952    0.57230    1.000
    O8       O        0.80185    0.16966    0.36290    1.000
    O9       O        0.67394    0.18258    0.30280    1.000
    O10      O        0.69887    0.19567    0.11080    1.000
    O11      O        0.67733    0.17064    0.79460    1.000
    O12      O        0.69766    0.20381    0.63400    1.000
    N7       N        0.72594    0.12129    0.01340    1.000
    N8       N        0.63824    0.92779    0.24480    1.000
    N9       N        0.73753    0.73044    0.09360    1.000
    N10      N        0.71525    0.12965    0.50020    1.000
    N11      N        0.63690    0.93360    0.74410    1.000
    N12      N        0.75320    0.74201    0.58890    1.000
    C78      C        0.72947    0.11289    0.13870    1.000
    H53      H        0.73840    0.12960    0.20000    1.000
    C79      C        0.72084    0.08161    0.18280    1.000
    H54      H        0.72420    0.07730    0.27220    1.000
    C80      C        0.70707    0.05583    0.09620    1.000
    C81      C        0.70300    0.06477    0.96460    1.000
    H55      H        0.69430    0.04860    0.90130    1.000
    C82      C        0.71180    0.09758    0.92730    1.000
    H56      H        0.70770    0.10320    0.83900    1.000
    C83      C        0.69288    0.02138    0.13870    1.000
    C84      C        0.67803    0.01673    0.26060    1.000
    H57      H        0.67890    0.03490    0.31820    1.000
    C85      C        0.66192    0.98592    0.30020    1.000
    H58      H        0.65260    0.98350    0.38370    1.000
    C86      C        0.65957    0.95811    0.21420    1.000
    C87      C        0.67828    0.96247    0.09430    1.000
    H59      H        0.67960    0.94410    0.03850    1.000
    C88      C        0.69463    0.99341    0.05760    1.000
    H60      H        0.70690    0.99560    0.97780    1.000
    C89      C        0.65561    0.89637    0.20820    1.000
    C90      C        0.70178    0.88910    0.22900    1.000
    H61      H        0.72230    0.90590    0.26210    1.000
    C91      C        0.71904    0.85735    0.20220    1.000
    H62      H        0.75070    0.85300    0.21620    1.000
    C92      C        0.68862    0.83212    0.15450    1.000
    C93      C        0.64242    0.83968    0.12820    1.000
    H63      H        0.62210    0.82300    0.09330    1.000
    C94      C        0.62551    0.87135    0.15240    1.000
    H64      H        0.59420    0.87620    0.13180    1.000
    C95      C        0.70606    0.79673    0.13330    1.000
    C96      C        0.75242    0.78957    0.11900    1.000
    H65      H        0.77420    0.80690    0.12290    1.000
    C97      C        0.76562    0.75718    0.09930    1.000
    H66      H        0.79670    0.75340    0.08890    1.000
    C98      C        0.69454    0.73729    0.11150    1.000
    H67      H        0.67390    0.71920    0.11100    1.000
    C99      C        0.67759    0.76842    0.13070    1.000
    H68      H        0.64630    0.77100    0.14240    1.000
    C100     C        0.59787    0.92898    0.31630    1.000
    C101     C        0.56706    0.95563    0.30770    1.000
    H69      H        0.57150    0.97350    0.25140    1.000
    C102     C        0.52924    0.95635    0.38180    1.000
    H70      H        0.51010    0.97530    0.37770    1.000
    C103     C        0.51963    0.92985    0.46060    1.000
    C104     C        0.54945    0.90212    0.46290    1.000
    H71      H        0.54280    0.88310    0.51110    1.000
    C105     C        0.58811    0.90193    0.39680    1.000
    H72      H        0.60820    0.88350    0.40540    1.000
    C106     C        0.74652    0.10699    0.54910    1.000
    H73      H        0.77760    0.11340    0.55990    1.000
    C107     C        0.73535    0.07474    0.58430    1.000
    H74      H        0.75870    0.06010    0.61800    1.000
    C108     C        0.68985    0.06361    0.57030    1.000
    C109     C        0.65758    0.08702    0.51800    1.000
    H75      H        0.62630    0.08130    0.50630    1.000
    C110     C        0.67147    0.11844    0.48350    1.000
    H76      H        0.64890    0.13310    0.44560    1.000
    C111     C        0.67758    0.02912    0.61160    1.000
    C112     C        0.71003    0.00572    0.66060    1.000
    H77      H        0.74140    0.01120    0.66590    1.000
    C113     C        0.69682    0.97454    0.70160    1.000
    H78      H        0.71950    0.95940    0.73570    1.000
    C114     C        0.65079    0.96487    0.69370    1.000
    C115     C        0.61721    0.98726    0.63940    1.000
    H79      H        0.58620    0.98080    0.62950    1.000
    C116     C        0.62966    0.01855    0.60060    1.000
    H80      H        0.60680    0.03350    0.56630    1.000
    C117     C        0.66413    0.90370    0.72450    1.000
    C118     C        0.67052    0.87877    0.82460    1.000
    H81      H        0.66050    0.88270    0.90640    1.000
    C119     C        0.69157    0.84905    0.79850    1.000
    H82      H        0.69550    0.83280    0.86430    1.000
    C120     C        0.70751    0.84178    0.67860    1.000
    C121     C        0.70334    0.86794    0.58350    1.000
    H83      H        0.71480    0.86450    0.50320    1.000
    C122     C        0.68288    0.89784    0.60820    1.000
    H84      H        0.68150    0.91480    0.54530    1.000
    C123     C        0.72567    0.80848    0.64860    1.000
    C124     C        0.72560    0.78164    0.73730    1.000
    H85      H        0.71590    0.78560    0.81950    1.000
    C125     C        0.73944    0.74964    0.70630    1.000
    H86      H        0.73930    0.73270    0.76890    1.000
    C126     C        0.75170    0.76694    0.50270    1.000
    H87      H        0.76110    0.76210    0.42080    1.000
    C127     C        0.73740    0.79909    0.52460    1.000
    H88      H        0.73550    0.81490    0.45710    1.000
    C128     C        0.59712    0.93185    0.81430    1.000
    C129     C        0.58577    0.95918    0.88950    1.000
    H89      H        0.60450    0.97840    0.89360    1.000
    C130     C        0.54740    0.95848    0.95810    1.000
    H90      H        0.53960    0.97770    0.00350    1.000
    C131     C        0.52022    0.92985    0.96100    1.000
    C132     C        0.53232    0.90277    0.88890    1.000
    H91      H        0.51450    0.88320    0.88920    1.000
    C133     C        0.57028    0.90324    0.81470    1.000
    H92      H        0.57720    0.88440    0.76610    1.000
    C134     C        0.82494    0.17280    0.47250    1.000
    C135     C        0.87727    0.16897    0.48020    1.000
    C136     C        0.90002    0.16138    0.37290    1.000
    H93      H        0.88250    0.15770    0.29330    1.000
    C137     C        0.94696    0.15907    0.37800    1.000
    H94      H        0.96080    0.15400    0.30240    1.000
    C138     C        0.97492    0.16420    0.49630    1.000
    C139     C        0.95155    0.17270    0.60650    1.000
    H95      H        0.96880    0.17670    0.68630    1.000
    C140     C        0.90348    0.17521    0.59820    1.000
    H96      H        0.88890    0.18110    0.67160    1.000
    C141     C        0.66776    0.19027    0.18350    1.000
    C142     C        0.61794    0.19387    0.12670    1.000
    C143     C        0.58388    0.18970    0.20650    1.000
    H97      H        0.59140    0.18390    0.29380    1.000
    C144     C        0.53739    0.19400    0.15760    1.000
    H98      H        0.51430    0.19250    0.21410    1.000
    C145     C        0.52533    0.20061    0.02740    1.000
    C146     C        0.56066    0.20503    0.94700    1.000
    H99      H        0.55340    0.21000    0.85880    1.000
    C147     C        0.60577    0.20218    0.99650    1.000
    H100     H        0.62900    0.20590    0.94190    1.000
    C148     C        0.66869    0.18669    0.69130    1.000
    C149     C        0.61787    0.18840    0.63360    1.000
    C150     C        0.58964    0.16028    0.64400    1.000
    H101     H        0.60190    0.14130    0.68860    1.000
    C151     C        0.54444    0.15957    0.59090    1.000
    H102     H        0.52680    0.14000    0.59550    1.000
    C152     C        0.52457    0.18912    0.52850    1.000
    C153     C        0.55225    0.21572    0.52050    1.000
    H103     H        0.54010    0.23540    0.48070    1.000
    C154     C        0.59947    0.21527    0.57040    1.000
    H104     H        0.61800    0.23410    0.55870    1.000
    Cd5      Cd       0.76034    0.67604    0.05537    1.000
    Cd6      Cd       0.76784    0.68634    0.54284    1.000
    O13      O        0.69374    0.67952    0.42770    1.000
    O14      O        0.69815    0.66966    0.63710    1.000
    O15      O        0.82606    0.68258    0.69720    1.000
    O16      O        0.80113    0.69567    0.88920    1.000
    O17      O        0.82267    0.67064    0.20540    1.000
    O18      O        0.80234    0.70381    0.36600    1.000
    N13      N        0.77406    0.62129    0.98660    1.000
    N14      N        0.86176    0.42779    0.75520    1.000
    N15      N        0.76247    0.23044    0.90640    1.000
    N16      N        0.78475    0.62965    0.49980    1.000
    N17      N        0.86310    0.43360    0.25590    1.000
    N18      N        0.74680    0.24201    0.41110    1.000
    C155     C        0.77053    0.61289    0.86130    1.000
    H105     H        0.76160    0.62960    0.80000    1.000
    C156     C        0.77916    0.58161    0.81720    1.000
    H106     H        0.77580    0.57730    0.72780    1.000
    C157     C        0.79293    0.55583    0.90380    1.000
    C158     C        0.79700    0.56477    0.03540    1.000
    H107     H        0.80570    0.54860    0.09870    1.000
    C159     C        0.78820    0.59758    0.07270    1.000
    H108     H        0.79230    0.60320    0.16100    1.000
    C160     C        0.80712    0.52138    0.86130    1.000
    C161     C        0.82197    0.51673    0.73940    1.000
    H109     H        0.82110    0.53490    0.68180    1.000
    C162     C        0.83808    0.48592    0.69980    1.000
    H110     H        0.84740    0.48350    0.61630    1.000
    C163     C        0.84043    0.45811    0.78580    1.000
    C164     C        0.82172    0.46247    0.90570    1.000
    H111     H        0.82040    0.44410    0.96150    1.000
    C165     C        0.80537    0.49341    0.94240    1.000
    H112     H        0.79310    0.49560    0.02220    1.000
    C166     C        0.84439    0.39637    0.79180    1.000
    C167     C        0.79822    0.38910    0.77100    1.000
    H113     H        0.77770    0.40590    0.73790    1.000
    C168     C        0.78096    0.35735    0.79780    1.000
    H114     H        0.74930    0.35300    0.78380    1.000
    C169     C        0.81138    0.33212    0.84550    1.000
    C170     C        0.85758    0.33968    0.87180    1.000
    H115     H        0.87790    0.32300    0.90670    1.000
    C171     C        0.87449    0.37135    0.84760    1.000
    H116     H        0.90580    0.37620    0.86820    1.000
    C172     C        0.79394    0.29673    0.86670    1.000
    C173     C        0.74758    0.28957    0.88100    1.000
    H117     H        0.72580    0.30690    0.87710    1.000
    C174     C        0.73438    0.25718    0.90070    1.000
    H118     H        0.70330    0.25340    0.91110    1.000
    C175     C        0.80546    0.23729    0.88850    1.000
    H119     H        0.82610    0.21920    0.88900    1.000
    C176     C        0.82241    0.26842    0.86930    1.000
    H120     H        0.85370    0.27100    0.85760    1.000
    C177     C        0.90213    0.42898    0.68370    1.000
    C178     C        0.93294    0.45563    0.69230    1.000
    H121     H        0.92850    0.47350    0.74860    1.000
    C179     C        0.97076    0.45635    0.61820    1.000
    H122     H        0.98990    0.47530    0.62230    1.000
    C180     C        0.98037    0.42985    0.53940    1.000
    C181     C        0.95055    0.40212    0.53710    1.000
    H123     H        0.95720    0.38310    0.48890    1.000
    C182     C        0.91189    0.40193    0.60320    1.000
    H124     H        0.89180    0.38350    0.59460    1.000
    C183     C        0.75348    0.60699    0.45090    1.000
    H125     H        0.72240    0.61340    0.44010    1.000
    C184     C        0.76465    0.57474    0.41570    1.000
    H126     H        0.74130    0.56010    0.38200    1.000
    C185     C        0.81015    0.56361    0.42970    1.000
    C186     C        0.84242    0.58702    0.48200    1.000
    H127     H        0.87370    0.58130    0.49370    1.000
    C187     C        0.82853    0.61844    0.51650    1.000
    H128     H        0.85110    0.63310    0.55440    1.000
    C188     C        0.82242    0.52912    0.38840    1.000
    C189     C        0.78997    0.50572    0.33940    1.000
    H129     H        0.75860    0.51120    0.33410    1.000
    C190     C        0.80318    0.47454    0.29840    1.000
    H130     H        0.78050    0.45940    0.26430    1.000
    C191     C        0.84921    0.46487    0.30630    1.000
    C192     C        0.88279    0.48726    0.36060    1.000
    H131     H        0.91380    0.48080    0.37050    1.000
    C193     C        0.87034    0.51855    0.39940    1.000
    H132     H        0.89320    0.53350    0.43370    1.000
    C194     C        0.83587    0.40370    0.27550    1.000
    C195     C        0.82948    0.37877    0.17540    1.000
    H133     H        0.83950    0.38270    0.09360    1.000
    C196     C        0.80843    0.34905    0.20150    1.000
    H134     H        0.80450    0.33280    0.13570    1.000
    C197     C        0.79249    0.34178    0.32140    1.000
    C198     C        0.79666    0.36794    0.41650    1.000
    H135     H        0.78520    0.36450    0.49680    1.000
    C199     C        0.81712    0.39784    0.39180    1.000
    H136     H        0.81850    0.41480    0.45470    1.000
    C200     C        0.77433    0.30848    0.35140    1.000
    C201     C        0.77440    0.28164    0.26270    1.000
    H137     H        0.78410    0.28560    0.18050    1.000
    C202     C        0.76056    0.24964    0.29370    1.000
    H138     H        0.76070    0.23270    0.23110    1.000
    C203     C        0.74830    0.26694    0.49730    1.000
    H139     H        0.73890    0.26210    0.57920    1.000
    C204     C        0.76260    0.29909    0.47540    1.000
    H140     H        0.76450    0.31490    0.54290    1.000
    C205     C        0.90288    0.43185    0.18570    1.000
    C206     C        0.91423    0.45918    0.11050    1.000
    H141     H        0.89550    0.47840    0.10640    1.000
    C207     C        0.95260    0.45848    0.04190    1.000
    H142     H        0.96040    0.47770    0.99650    1.000
    C208     C        0.97978    0.42985    0.03900    1.000
    C209     C        0.96768    0.40277    0.11110    1.000
    H143     H        0.98550    0.38320    0.11080    1.000
    C210     C        0.92972    0.40324    0.18530    1.000
    H144     H        0.92280    0.38440    0.23390    1.000
    C211     C        0.67506    0.67280    0.52750    1.000
    C212     C        0.62273    0.66897    0.51980    1.000
    C213     C        0.59998    0.66138    0.62710    1.000
    H145     H        0.61750    0.65770    0.70670    1.000
    C214     C        0.55304    0.65907    0.62200    1.000
    H146     H        0.53920    0.65400    0.69760    1.000
    C215     C        0.52508    0.66420    0.50370    1.000
    C216     C        0.54845    0.67270    0.39350    1.000
    H147     H        0.53120    0.67670    0.31370    1.000
    C217     C        0.59652    0.67521    0.40180    1.000
    H148     H        0.61110    0.68110    0.32840    1.000
    C218     C        0.83224    0.69027    0.81650    1.000
    C219     C        0.88206    0.69387    0.87330    1.000
    C220     C        0.91612    0.68970    0.79350    1.000
    H149     H        0.90860    0.68390    0.70620    1.000
    C221     C        0.96261    0.69400    0.84240    1.000
    H150     H        0.98570    0.69250    0.78590    1.000
    C222     C        0.97467    0.70061    0.97260    1.000
    C223     C        0.93934    0.70503    0.05300    1.000
    H151     H        0.94660    0.71000    0.14120    1.000
    C224     C        0.89423    0.70218    0.00350    1.000
    H152     H        0.87100    0.70590    0.05810    1.000
    C225     C        0.83131    0.68669    0.30870    1.000
    C226     C        0.88213    0.68840    0.36640    1.000
    C227     C        0.91036    0.66028    0.35600    1.000
    H153     H        0.89810    0.64130    0.31140    1.000
    C228     C        0.95556    0.65957    0.40910    1.000
    H154     H        0.97320    0.64000    0.40450    1.000
    C229     C        0.97543    0.68912    0.47150    1.000
    C230     C        0.94775    0.71572    0.47950    1.000
    H155     H        0.95990    0.73540    0.51930    1.000
    C231     C        0.90053    0.71527    0.42960    1.000
    H156     H        0.88200    0.73410    0.44130    1.000
    Cd7      Cd       0.26034    0.17604    0.05537    1.000
    Cd8      Cd       0.26784    0.18634    0.54284    1.000
    O19      O        0.19374    0.17952    0.42770    1.000
    O20      O        0.19815    0.16966    0.63710    1.000
    O21      O        0.32606    0.18258    0.69720    1.000
    O22      O        0.30113    0.19567    0.88920    1.000
    O23      O        0.32267    0.17064    0.20540    1.000
    O24      O        0.30234    0.20381    0.36600    1.000
    N19      N        0.27406    0.12129    0.98660    1.000
    N20      N        0.36176    0.92779    0.75520    1.000
    N21      N        0.26247    0.73044    0.90640    1.000
    N22      N        0.28475    0.12965    0.49980    1.000
    N23      N        0.36310    0.93360    0.25590    1.000
    N24      N        0.24680    0.74201    0.41110    1.000
    C232     C        0.27053    0.11289    0.86130    1.000
    H157     H        0.26160    0.12960    0.80000    1.000
    C233     C        0.27916    0.08161    0.81720    1.000
    H158     H        0.27580    0.07730    0.72780    1.000
    C234     C        0.29293    0.05583    0.90380    1.000
    C235     C        0.29700    0.06477    0.03540    1.000
    H159     H        0.30570    0.04860    0.09870    1.000
    C236     C        0.28820    0.09758    0.07270    1.000
    H160     H        0.29230    0.10320    0.16100    1.000
    C237     C        0.30712    0.02138    0.86130    1.000
    C238     C        0.32197    0.01673    0.73940    1.000
    H161     H        0.32110    0.03490    0.68180    1.000
    C239     C        0.33808    0.98592    0.69980    1.000
    H162     H        0.34740    0.98350    0.61630    1.000
    C240     C        0.34043    0.95811    0.78580    1.000
    C241     C        0.32172    0.96247    0.90570    1.000
    H163     H        0.32040    0.94410    0.96150    1.000
    C242     C        0.30537    0.99341    0.94240    1.000
    H164     H        0.29310    0.99560    0.02220    1.000
    C243     C        0.34439    0.89637    0.79180    1.000
    C244     C        0.29822    0.88910    0.77100    1.000
    H165     H        0.27770    0.90590    0.73790    1.000
    C245     C        0.28096    0.85735    0.79780    1.000
    H166     H        0.24930    0.85300    0.78380    1.000
    C246     C        0.31138    0.83212    0.84550    1.000
    C247     C        0.35758    0.83968    0.87180    1.000
    H167     H        0.37790    0.82300    0.90670    1.000
    C248     C        0.37449    0.87135    0.84760    1.000
    H168     H        0.40580    0.87620    0.86820    1.000
    C249     C        0.29394    0.79673    0.86670    1.000
    C250     C        0.24758    0.78957    0.88100    1.000
    H169     H        0.22580    0.80690    0.87710    1.000
    C251     C        0.23438    0.75718    0.90070    1.000
    H170     H        0.20330    0.75340    0.91110    1.000
    C252     C        0.30546    0.73729    0.88850    1.000
    H171     H        0.32610    0.71920    0.88900    1.000
    C253     C        0.32241    0.76842    0.86930    1.000
    H172     H        0.35370    0.77100    0.85760    1.000
    C254     C        0.40213    0.92898    0.68370    1.000
    C255     C        0.43294    0.95563    0.69230    1.000
    H173     H        0.42850    0.97350    0.74860    1.000
    C256     C        0.47076    0.95635    0.61820    1.000
    H174     H        0.48990    0.97530    0.62230    1.000
    C257     C        0.48037    0.92985    0.53940    1.000
    C258     C        0.45055    0.90212    0.53710    1.000
    H175     H        0.45720    0.88310    0.48890    1.000
    C259     C        0.41189    0.90193    0.60320    1.000
    H176     H        0.39180    0.88350    0.59460    1.000
    C260     C        0.25348    0.10699    0.45090    1.000
    H177     H        0.22240    0.11340    0.44010    1.000
    C261     C        0.26465    0.07474    0.41570    1.000
    H178     H        0.24130    0.06010    0.38200    1.000
    C262     C        0.31015    0.06361    0.42970    1.000
    C263     C        0.34242    0.08702    0.48200    1.000
    H179     H        0.37370    0.08130    0.49370    1.000
    C264     C        0.32853    0.11844    0.51650    1.000
    H180     H        0.35110    0.13310    0.55440    1.000
    C265     C        0.32242    0.02912    0.38840    1.000
    C266     C        0.28997    0.00572    0.33940    1.000
    H181     H        0.25860    0.01120    0.33410    1.000
    C267     C        0.30318    0.97454    0.29840    1.000
    H182     H        0.28050    0.95940    0.26430    1.000
    C268     C        0.34921    0.96487    0.30630    1.000
    C269     C        0.38279    0.98726    0.36060    1.000
    H183     H        0.41380    0.98080    0.37050    1.000
    C270     C        0.37034    0.01855    0.39940    1.000
    H184     H        0.39320    0.03350    0.43370    1.000
    C271     C        0.33587    0.90370    0.27550    1.000
    C272     C        0.32948    0.87877    0.17540    1.000
    H185     H        0.33950    0.88270    0.09360    1.000
    C273     C        0.30843    0.84905    0.20150    1.000
    H186     H        0.30450    0.83280    0.13570    1.000
    C274     C        0.29249    0.84178    0.32140    1.000
    C275     C        0.29666    0.86794    0.41650    1.000
    H187     H        0.28520    0.86450    0.49680    1.000
    C276     C        0.31712    0.89784    0.39180    1.000
    H188     H        0.31850    0.91480    0.45470    1.000
    C277     C        0.27433    0.80848    0.35140    1.000
    C278     C        0.27440    0.78164    0.26270    1.000
    H189     H        0.28410    0.78560    0.18050    1.000
    C279     C        0.26056    0.74964    0.29370    1.000
    H190     H        0.26070    0.73270    0.23110    1.000
    C280     C        0.24830    0.76694    0.49730    1.000
    H191     H        0.23890    0.76210    0.57920    1.000
    C281     C        0.26260    0.79909    0.47540    1.000
    H192     H        0.26450    0.81490    0.54290    1.000
    C282     C        0.40288    0.93185    0.18570    1.000
    C283     C        0.41423    0.95918    0.11050    1.000
    H193     H        0.39550    0.97840    0.10640    1.000
    C284     C        0.45260    0.95848    0.04190    1.000
    H194     H        0.46040    0.97770    0.99650    1.000
    C285     C        0.47978    0.92985    0.03900    1.000
    C286     C        0.46768    0.90277    0.11110    1.000
    H195     H        0.48550    0.88320    0.11080    1.000
    C287     C        0.42972    0.90324    0.18530    1.000
    H196     H        0.42280    0.88440    0.23390    1.000
    C288     C        0.17506    0.17280    0.52750    1.000
    C289     C        0.12273    0.16897    0.51980    1.000
    C290     C        0.09998    0.16138    0.62710    1.000
    H197     H        0.11750    0.15770    0.70670    1.000
    C291     C        0.05304    0.15907    0.62200    1.000
    H198     H        0.03920    0.15400    0.69760    1.000
    C292     C        0.02508    0.16420    0.50370    1.000
    C293     C        0.04845    0.17270    0.39350    1.000
    H199     H        0.03120    0.17670    0.31370    1.000
    C294     C        0.09652    0.17521    0.40180    1.000
    H200     H        0.11110    0.18110    0.32840    1.000
    C295     C        0.33224    0.19027    0.81650    1.000
    C296     C        0.38206    0.19387    0.87330    1.000
    C297     C        0.41612    0.18970    0.79350    1.000
    H201     H        0.40860    0.18390    0.70620    1.000
    C298     C        0.46261    0.19400    0.84240    1.000
    H202     H        0.48570    0.19250    0.78590    1.000
    C299     C        0.47467    0.20061    0.97260    1.000
    C300     C        0.43934    0.20503    0.05300    1.000
    H203     H        0.44660    0.21000    0.14120    1.000
    C301     C        0.39423    0.20218    0.00350    1.000
    H204     H        0.37100    0.20590    0.05810    1.000
    C302     C        0.33131    0.18669    0.30870    1.000
    C303     C        0.38213    0.18840    0.36640    1.000
    C304     C        0.41036    0.16028    0.35600    1.000
    H205     H        0.39810    0.14130    0.31140    1.000
    C305     C        0.45556    0.15957    0.40910    1.000
    H206     H        0.47320    0.14000    0.40450    1.000
    C306     C        0.47543    0.18912    0.47150    1.000
    C307     C        0.44775    0.21572    0.47950    1.000
    H207     H        0.45990    0.23540    0.51930    1.000
    C308     C        0.40053    0.21527    0.42960    1.000
    H208     H        0.38200    0.23410    0.44130    1.000
