# CIF file generated by openbabel 3.1.0, see https://openbabel.org
data_I
_chemical_name_common 'image0'
_cell_length_a 10.35
_cell_length_b 12.19
_cell_length_c 13
_cell_angle_alpha 90
_cell_angle_beta 90
_cell_angle_gamma 90
_space_group_name_H-M_alt 'P 1'
_space_group_name_Hall 'P 1'
loop_
    _symmetry_equiv_pos_as_xyz
    x,y,z
loop_
    _atom_site_label
    _atom_site_type_symbol
    _atom_site_fract_x
    _atom_site_fract_y
    _atom_site_fract_z
    _atom_site_occupancy
    O1       O        0.54550    0.27750    0.16260    1.000
    O2       O        0.39200    0.13380    0.21020    1.000
    O3       O        0.10570    0.11190    0.24050    1.000
    O4       O        0.72580    0.02410    0.90820    1.000
    O5       O        0.45450    0.72250    0.16260    1.000
    O6       O        0.60800    0.86620    0.21020    1.000
    O7       O        0.89430    0.88810    0.24050    1.000
    O8       O        0.27420    0.97590    0.90820    1.000
    O9       O        0.45450    0.27750    0.33740    1.000
    O10      O        0.60800    0.13380    0.28980    1.000
    O11      O        0.89430    0.11190    0.25950    1.000
    O12      O        0.27420    0.02410    0.59180    1.000
    O13      O        0.54550    0.72250    0.33740    1.000
    O14      O        0.39200    0.86620    0.28980    1.000
    O15      O        0.10570    0.88810    0.25950    1.000
    O16      O        0.72580    0.97590    0.59180    1.000
    O17      O        0.45450    0.72250    0.83740    1.000
    O18      O        0.60800    0.86620    0.78980    1.000
    O19      O        0.89430    0.88810    0.75950    1.000
    O20      O        0.27420    0.97590    0.09180    1.000
    O21      O        0.54550    0.27750    0.83740    1.000
    O22      O        0.39200    0.13380    0.78980    1.000
    O23      O        0.10570    0.11190    0.75950    1.000
    O24      O        0.72580    0.02410    0.09180    1.000
    O25      O        0.54550    0.72250    0.66260    1.000
    O26      O        0.39200    0.86620    0.71020    1.000
    O27      O        0.10570    0.88810    0.74050    1.000
    O28      O        0.72580    0.97590    0.40820    1.000
    O29      O        0.45450    0.27750    0.66260    1.000
    O30      O        0.60800    0.13380    0.71020    1.000
    O31      O        0.89430    0.11190    0.74050    1.000
    O32      O        0.27420    0.02410    0.40820    1.000
    In1      In       0.55930    0.27030    0.00000    1.000
    P1       P        0.78100    0.08340    0.00000    1.000
    C1       C        0.57400    0.51230    0.00000    1.000
    O33      O        0.64780    0.43190    0.00000    1.000
    O34      O        0.60710    0.61110    0.00000    1.000
    O35      O        0.74260    0.20150    0.00000    1.000
    O36      O        0.92400    0.09100    0.00000    1.000
    In2      In       0.44070    0.72970    0.00000    1.000
    P2       P        0.21900    0.91660    0.00000    1.000
    C2       C        0.42600    0.48770    0.00000    1.000
    O37      O        0.35220    0.56810    0.00000    1.000
    O38      O        0.39290    0.38890    0.00000    1.000
    O39      O        0.25740    0.79850    0.00000    1.000
    O40      O        0.07600    0.90900    0.00000    1.000
    In3      In       0.44070    0.27030    0.50000    1.000
    P3       P        0.21900    0.08340    0.50000    1.000
    C3       C        0.42600    0.51230    0.50000    1.000
    O41      O        0.35220    0.43190    0.50000    1.000
    O42      O        0.39290    0.61110    0.50000    1.000
    O43      O        0.25740    0.20150    0.50000    1.000
    O44      O        0.07600    0.09100    0.50000    1.000
    In4      In       0.55930    0.72970    0.50000    1.000
    P4       P        0.78100    0.91660    0.50000    1.000
    C4       C        0.57400    0.48770    0.50000    1.000
    O45      O        0.64780    0.56810    0.50000    1.000
    O46      O        0.60710    0.38890    0.50000    1.000
    O47      O        0.74260    0.79850    0.50000    1.000
    O48      O        0.92400    0.90900    0.50000    1.000
    In5      In       0.27590    0.00000    0.25000    1.000
    In6      In       0.72410    0.00000    0.25000    1.000
    In7      In       0.72410    0.00000    0.75000    1.000
    In8      In       0.27590    0.00000    0.75000    1.000
    P5       P        0.50000    0.20430    0.25000    1.000
    P6       P        0.50000    0.79570    0.25000    1.000
    P7       P        0.50000    0.79570    0.75000    1.000
    P8       P        0.50000    0.20430    0.75000    1.000
    C5       C        0.00000    0.06670    0.25000    1.000
    C6       C        0.00000    0.93330    0.25000    1.000
    C7       C        0.00000    0.93330    0.75000    1.000
    C8       C        0.00000    0.06670    0.75000    1.000
