# CIF file generated by openbabel 3.1.0, see https://openbabel.org
data_I
_chemical_name_common 'image0'
_cell_length_a 17.268
_cell_length_b 15.465
_cell_length_c 17.929
_cell_angle_alpha 90
_cell_angle_beta 90
_cell_angle_gamma 90
_space_group_name_H-M_alt 'P 1'
_space_group_name_Hall 'P 1'
loop_
    _symmetry_equiv_pos_as_xyz
    x,y,z
loop_
    _atom_site_label
    _atom_site_type_symbol
    _atom_site_fract_x
    _atom_site_fract_y
    _atom_site_fract_z
    _atom_site_occupancy
    C1       C        0.78780    0.03070    0.89500    1.000
    H1       H        0.80880    0.97640    0.90430    1.000
    C2       C        0.81060    0.07330    0.83130    1.000
    H2       H        0.84560    0.04770    0.79850    1.000
    C3       C        0.78040    0.15610    0.81640    1.000
    C4       C        0.72950    0.19110    0.86910    1.000
    H3       H        0.70910    0.24620    0.86260    1.000
    C5       C        0.71010    0.14260    0.93090    1.000
    H4       H        0.67610    0.16690    0.96530    1.000
    C6       C        0.67940    0.37190    0.67970    1.000
    H5       H        0.63040    0.39530    0.68690    1.000
    C7       C        0.70160    0.30480    0.72510    1.000
    H6       H        0.66830    0.28360    0.76150    1.000
    C8       C        0.77550    0.26900    0.71543    1.000
    C9       C        0.82300    0.30600    0.66090    1.000
    H7       H        0.87310    0.28560    0.65400    1.000
    C10      C        0.79530    0.37230    0.61770    1.000
    H8       H        0.82760    0.39520    0.58110    1.000
    C11      C        0.81880    0.91810    0.15194    1.000
    H9       H        0.79100    0.95350    0.18420    1.000
    C12      C        0.88620    0.88200    0.17740    1.000
    H10      H        0.90340    0.89370    0.22550    1.000
    C13      C        0.92940    0.82710    0.13050    1.000
    C14      C        0.89870    0.81170    0.05880    1.000
    H11      H        0.92400    0.77490    0.02580    1.000
    C15      C        0.83100    0.85190    0.03840    1.000
    H12      H        0.81210    0.84150    0.99070    1.000
    C16      C        0.11660    0.69540    0.00980    1.000
    H13      H        0.13090    0.70760    0.96090    1.000
    C17      C        0.07010    0.75430    0.04620    1.000
    H14      H        0.05480    0.80510    0.02260    1.000
    C18      C        0.04660    0.73650    0.11850    1.000
    C19      C        0.07560    0.66260    0.15210    1.000
    H15      H        0.06370    0.65020    0.20150    1.000
    C20      C        0.12240    0.60730    0.11130    1.000
    H16      H        0.14080    0.55760    0.13440    1.000
    N1       N        0.73707    0.06273    0.94482    1.000
    N2       N        0.80443    0.19700    0.75240    1.000
    H17      H        0.84440    0.17410    0.73170    1.000
    N3       N        0.72368    0.40610    0.62552    1.000
    N4       N        0.79029    0.90537    0.08254    1.000
    N5       N        0.99541    0.78980    0.15786    1.000
    H18      H        0.00650    0.80010    0.20380    1.000
    N6       N        0.14249    0.62200    0.04008    1.000
    Cd1      Cd       0.68298    0.98433    0.04444    1.000
    C21      C        0.28780    0.46930    0.10500    1.000
    H19      H        0.30880    0.52360    0.09570    1.000
    C22      C        0.31060    0.42670    0.16870    1.000
    H20      H        0.34560    0.45230    0.20150    1.000
    C23      C        0.28040    0.34390    0.18360    1.000
    C24      C        0.22950    0.30890    0.13090    1.000
    H21      H        0.20910    0.25380    0.13740    1.000
    C25      C        0.21010    0.35740    0.06910    1.000
    H22      H        0.17610    0.33310    0.03470    1.000
    C26      C        0.17940    0.12810    0.32030    1.000
    H23      H        0.13040    0.10470    0.31310    1.000
    C27      C        0.20160    0.19520    0.27490    1.000
    H24      H        0.16830    0.21640    0.23850    1.000
    C28      C        0.27550    0.23100    0.28457    1.000
    C29      C        0.32300    0.19400    0.33910    1.000
    H25      H        0.37310    0.21440    0.34600    1.000
    C30      C        0.29530    0.12770    0.38230    1.000
    H26      H        0.32760    0.10480    0.41890    1.000
    C31      C        0.31880    0.58190    0.84806    1.000
    H27      H        0.29100    0.54650    0.81580    1.000
    C32      C        0.38620    0.61800    0.82260    1.000
    H28      H        0.40340    0.60630    0.77450    1.000
    C33      C        0.42940    0.67290    0.86950    1.000
    C34      C        0.39870    0.68830    0.94120    1.000
    H29      H        0.42400    0.72510    0.97420    1.000
    C35      C        0.33100    0.64810    0.96160    1.000
    H30      H        0.31210    0.65850    0.00930    1.000
    C36      C        0.61660    0.80460    0.99020    1.000
    H31      H        0.63090    0.79240    0.03910    1.000
    C37      C        0.57010    0.74570    0.95380    1.000
    H32      H        0.55480    0.69490    0.97740    1.000
    C38      C        0.54660    0.76350    0.88150    1.000
    C39      C        0.57560    0.83740    0.84790    1.000
    H33      H        0.56370    0.84980    0.79850    1.000
    C40      C        0.62240    0.89270    0.88870    1.000
    H34      H        0.64080    0.94240    0.86560    1.000
    N7       N        0.23707    0.43727    0.05518    1.000
    N8       N        0.30443    0.30300    0.24760    1.000
    H35      H        0.34440    0.32590    0.26830    1.000
    N9       N        0.22368    0.09390    0.37448    1.000
    N10      N        0.29029    0.59463    0.91746    1.000
    N11      N        0.49541    0.71020    0.84214    1.000
    H36      H        0.50650    0.69990    0.79620    1.000
    N12      N        0.64249    0.87800    0.95992    1.000
    Cd2      Cd       0.18298    0.51567    0.95557    1.000
    C41      C        0.28780    0.03070    0.60500    1.000
    H37      H        0.30880    0.97640    0.59570    1.000
    C42      C        0.31060    0.07330    0.66870    1.000
    H38      H        0.34560    0.04770    0.70150    1.000
    C43      C        0.28040    0.15610    0.68360    1.000
    C44      C        0.22950    0.19110    0.63090    1.000
    H39      H        0.20910    0.24620    0.63740    1.000
    C45      C        0.21010    0.14260    0.56910    1.000
    H40      H        0.17610    0.16690    0.53470    1.000
    C46      C        0.17940    0.37190    0.82030    1.000
    H41      H        0.13040    0.39530    0.81310    1.000
    C47      C        0.20160    0.30480    0.77490    1.000
    H42      H        0.16830    0.28360    0.73850    1.000
    C48      C        0.27550    0.26900    0.78457    1.000
    C49      C        0.32300    0.30600    0.83910    1.000
    H43      H        0.37310    0.28560    0.84600    1.000
    C50      C        0.29530    0.37230    0.88230    1.000
    H44      H        0.32760    0.39520    0.91890    1.000
    C51      C        0.31880    0.91810    0.34806    1.000
    H45      H        0.29100    0.95350    0.31580    1.000
    C52      C        0.38620    0.88200    0.32260    1.000
    H46      H        0.40340    0.89370    0.27450    1.000
    C53      C        0.42940    0.82710    0.36950    1.000
    C54      C        0.39870    0.81170    0.44120    1.000
    H47      H        0.42400    0.77490    0.47420    1.000
    C55      C        0.33100    0.85190    0.46160    1.000
    H48      H        0.31210    0.84150    0.50930    1.000
    C56      C        0.61660    0.69540    0.49020    1.000
    H49      H        0.63090    0.70760    0.53910    1.000
    C57      C        0.57010    0.75430    0.45380    1.000
    H50      H        0.55480    0.80510    0.47740    1.000
    C58      C        0.54660    0.73650    0.38150    1.000
    C59      C        0.57560    0.66260    0.34790    1.000
    H51      H        0.56370    0.65020    0.29850    1.000
    C60      C        0.62240    0.60730    0.38870    1.000
    H52      H        0.64080    0.55760    0.36560    1.000
    N13      N        0.23707    0.06273    0.55518    1.000
    N14      N        0.30443    0.19700    0.74760    1.000
    H53      H        0.34440    0.17410    0.76830    1.000
    N15      N        0.22368    0.40610    0.87448    1.000
    N16      N        0.29029    0.90537    0.41746    1.000
    N17      N        0.49541    0.78980    0.34214    1.000
    H54      H        0.50650    0.80010    0.29620    1.000
    N18      N        0.64249    0.62200    0.45992    1.000
    Cd3      Cd       0.18298    0.98433    0.45557    1.000
    C61      C        0.78780    0.46930    0.39500    1.000
    H55      H        0.80880    0.52360    0.40430    1.000
    C62      C        0.81060    0.42670    0.33130    1.000
    H56      H        0.84560    0.45230    0.29850    1.000
    C63      C        0.78040    0.34390    0.31640    1.000
    C64      C        0.72950    0.30890    0.36910    1.000
    H57      H        0.70910    0.25380    0.36260    1.000
    C65      C        0.71010    0.35740    0.43090    1.000
    H58      H        0.67610    0.33310    0.46530    1.000
    C66      C        0.67940    0.12810    0.17970    1.000
    H59      H        0.63040    0.10470    0.18690    1.000
    C67      C        0.70160    0.19520    0.22510    1.000
    H60      H        0.66830    0.21640    0.26150    1.000
    C68      C        0.77550    0.23100    0.21543    1.000
    C69      C        0.82300    0.19400    0.16090    1.000
    H61      H        0.87310    0.21440    0.15400    1.000
    C70      C        0.79530    0.12770    0.11770    1.000
    H62      H        0.82760    0.10480    0.08110    1.000
    C71      C        0.81880    0.58190    0.65194    1.000
    H63      H        0.79100    0.54650    0.68420    1.000
    C72      C        0.88620    0.61800    0.67740    1.000
    H64      H        0.90340    0.60630    0.72550    1.000
    C73      C        0.92940    0.67290    0.63050    1.000
    C74      C        0.89870    0.68830    0.55880    1.000
    H65      H        0.92400    0.72510    0.52580    1.000
    C75      C        0.83100    0.64810    0.53840    1.000
    H66      H        0.81210    0.65850    0.49070    1.000
    C76      C        0.11660    0.80460    0.50980    1.000
    H67      H        0.13090    0.79240    0.46090    1.000
    C77      C        0.07010    0.74570    0.54620    1.000
    H68      H        0.05480    0.69490    0.52260    1.000
    C78      C        0.04660    0.76350    0.61850    1.000
    C79      C        0.07560    0.83740    0.65210    1.000
    H69      H        0.06370    0.84980    0.70150    1.000
    C80      C        0.12240    0.89270    0.61130    1.000
    H70      H        0.14080    0.94240    0.63440    1.000
    N19      N        0.73707    0.43727    0.44482    1.000
    N20      N        0.80443    0.30300    0.25240    1.000
    H71      H        0.84440    0.32590    0.23170    1.000
    N21      N        0.72368    0.09390    0.12552    1.000
    N22      N        0.79029    0.59463    0.58254    1.000
    N23      N        0.99541    0.71020    0.65786    1.000
    H72      H        0.00650    0.69990    0.70380    1.000
    N24      N        0.14249    0.87800    0.54008    1.000
    Cd4      Cd       0.68298    0.51567    0.54444    1.000
    C81      C        0.71220    0.96930    0.39500    1.000
    H73      H        0.69120    0.02360    0.40430    1.000
    C82      C        0.68940    0.92670    0.33130    1.000
    H74      H        0.65440    0.95230    0.29850    1.000
    C83      C        0.71960    0.84390    0.31640    1.000
    C84      C        0.77050    0.80890    0.36910    1.000
    H75      H        0.79090    0.75380    0.36260    1.000
    C85      C        0.78990    0.85740    0.43090    1.000
    H76      H        0.82390    0.83310    0.46530    1.000
    C86      C        0.82060    0.62810    0.17970    1.000
    H77      H        0.86960    0.60470    0.18690    1.000
    C87      C        0.79840    0.69520    0.22510    1.000
    H78      H        0.83170    0.71640    0.26150    1.000
    C88      C        0.72450    0.73100    0.21543    1.000
    C89      C        0.67700    0.69400    0.16090    1.000
    H79      H        0.62690    0.71440    0.15400    1.000
    C90      C        0.70470    0.62770    0.11770    1.000
    H80      H        0.67240    0.60480    0.08110    1.000
    C91      C        0.68120    0.08190    0.65194    1.000
    H81      H        0.70900    0.04650    0.68420    1.000
    C92      C        0.61380    0.11800    0.67740    1.000
    H82      H        0.59660    0.10630    0.72550    1.000
    C93      C        0.57060    0.17290    0.63050    1.000
    C94      C        0.60130    0.18830    0.55880    1.000
    H83      H        0.57600    0.22510    0.52580    1.000
    C95      C        0.66900    0.14810    0.53840    1.000
    H84      H        0.68790    0.15850    0.49070    1.000
    C96      C        0.38340    0.30460    0.50980    1.000
    H85      H        0.36910    0.29240    0.46090    1.000
    C97      C        0.42990    0.24570    0.54620    1.000
    H86      H        0.44520    0.19490    0.52260    1.000
    C98      C        0.45340    0.26350    0.61850    1.000
    C99      C        0.42440    0.33740    0.65210    1.000
    H87      H        0.43630    0.34980    0.70150    1.000
    C100     C        0.37760    0.39270    0.61130    1.000
    H88      H        0.35920    0.44240    0.63440    1.000
    N25      N        0.76293    0.93727    0.44482    1.000
    N26      N        0.69557    0.80300    0.25240    1.000
    H89      H        0.65560    0.82590    0.23170    1.000
    N27      N        0.77632    0.59390    0.12552    1.000
    N28      N        0.70971    0.09463    0.58254    1.000
    N29      N        0.50459    0.21020    0.65786    1.000
    H90      H        0.49350    0.19990    0.70380    1.000
    N30      N        0.35751    0.37800    0.54008    1.000
    Cd5      Cd       0.81702    0.01567    0.54444    1.000
    C101     C        0.21220    0.53070    0.60500    1.000
    H91      H        0.19120    0.47640    0.59570    1.000
    C102     C        0.18940    0.57330    0.66870    1.000
    H92      H        0.15440    0.54770    0.70150    1.000
    C103     C        0.21960    0.65610    0.68360    1.000
    C104     C        0.27050    0.69110    0.63090    1.000
    H93      H        0.29090    0.74620    0.63740    1.000
    C105     C        0.28990    0.64260    0.56910    1.000
    H94      H        0.32390    0.66690    0.53470    1.000
    C106     C        0.32060    0.87190    0.82030    1.000
    H95      H        0.36960    0.89530    0.81310    1.000
    C107     C        0.29840    0.80480    0.77490    1.000
    H96      H        0.33170    0.78360    0.73850    1.000
    C108     C        0.22450    0.76900    0.78457    1.000
    C109     C        0.17700    0.80600    0.83910    1.000
    H97      H        0.12690    0.78560    0.84600    1.000
    C110     C        0.20470    0.87230    0.88230    1.000
    H98      H        0.17240    0.89520    0.91890    1.000
    C111     C        0.18120    0.41810    0.34806    1.000
    H99      H        0.20900    0.45350    0.31580    1.000
    C112     C        0.11380    0.38200    0.32260    1.000
    H100     H        0.09660    0.39370    0.27450    1.000
    C113     C        0.07060    0.32710    0.36950    1.000
    C114     C        0.10130    0.31170    0.44120    1.000
    H101     H        0.07600    0.27490    0.47420    1.000
    C115     C        0.16900    0.35190    0.46160    1.000
    H102     H        0.18790    0.34150    0.50930    1.000
    C116     C        0.88340    0.19540    0.49020    1.000
    H103     H        0.86910    0.20760    0.53910    1.000
    C117     C        0.92990    0.25430    0.45380    1.000
    H104     H        0.94520    0.30510    0.47740    1.000
    C118     C        0.95340    0.23650    0.38150    1.000
    C119     C        0.92440    0.16260    0.34790    1.000
    H105     H        0.93630    0.15020    0.29850    1.000
    C120     C        0.87760    0.10730    0.38870    1.000
    H106     H        0.85920    0.05760    0.36560    1.000
    N31      N        0.26293    0.56273    0.55518    1.000
    N32      N        0.19557    0.69700    0.74760    1.000
    H107     H        0.15560    0.67410    0.76830    1.000
    N33      N        0.27632    0.90610    0.87448    1.000
    N34      N        0.20971    0.40537    0.41746    1.000
    N35      N        0.00459    0.28980    0.34214    1.000
    H108     H        0.99350    0.30010    0.29620    1.000
    N36      N        0.85751    0.12200    0.45992    1.000
    Cd6      Cd       0.31702    0.48433    0.45557    1.000
    C121     C        0.21220    0.96930    0.10500    1.000
    H109     H        0.19120    0.02360    0.09570    1.000
    C122     C        0.18940    0.92670    0.16870    1.000
    H110     H        0.15440    0.95230    0.20150    1.000
    C123     C        0.21960    0.84390    0.18360    1.000
    C124     C        0.27050    0.80890    0.13090    1.000
    H111     H        0.29090    0.75380    0.13740    1.000
    C125     C        0.28990    0.85740    0.06910    1.000
    H112     H        0.32390    0.83310    0.03470    1.000
    C126     C        0.32060    0.62810    0.32030    1.000
    H113     H        0.36960    0.60470    0.31310    1.000
    C127     C        0.29840    0.69520    0.27490    1.000
    H114     H        0.33170    0.71640    0.23850    1.000
    C128     C        0.22450    0.73100    0.28457    1.000
    C129     C        0.17700    0.69400    0.33910    1.000
    H115     H        0.12690    0.71440    0.34600    1.000
    C130     C        0.20470    0.62770    0.38230    1.000
    H116     H        0.17240    0.60480    0.41890    1.000
    C131     C        0.18120    0.08190    0.84806    1.000
    H117     H        0.20900    0.04650    0.81580    1.000
    C132     C        0.11380    0.11800    0.82260    1.000
    H118     H        0.09660    0.10630    0.77450    1.000
    C133     C        0.07060    0.17290    0.86950    1.000
    C134     C        0.10130    0.18830    0.94120    1.000
    H119     H        0.07600    0.22510    0.97420    1.000
    C135     C        0.16900    0.14810    0.96160    1.000
    H120     H        0.18790    0.15850    0.00930    1.000
    C136     C        0.88340    0.30460    0.99020    1.000
    H121     H        0.86910    0.29240    0.03910    1.000
    C137     C        0.92990    0.24570    0.95380    1.000
    H122     H        0.94520    0.19490    0.97740    1.000
    C138     C        0.95340    0.26350    0.88150    1.000
    C139     C        0.92440    0.33740    0.84790    1.000
    H123     H        0.93630    0.34980    0.79850    1.000
    C140     C        0.87760    0.39270    0.88870    1.000
    H124     H        0.85920    0.44240    0.86560    1.000
    N37      N        0.26293    0.93727    0.05518    1.000
    N38      N        0.19557    0.80300    0.24760    1.000
    H125     H        0.15560    0.82590    0.26830    1.000
    N39      N        0.27632    0.59390    0.37448    1.000
    N40      N        0.20971    0.09463    0.91746    1.000
    N41      N        0.00459    0.21020    0.84214    1.000
    H126     H        0.99350    0.19990    0.79620    1.000
    N42      N        0.85751    0.37800    0.95992    1.000
    Cd7      Cd       0.31702    0.01567    0.95557    1.000
    C141     C        0.71220    0.53070    0.89500    1.000
    H127     H        0.69120    0.47640    0.90430    1.000
    C142     C        0.68940    0.57330    0.83130    1.000
    H128     H        0.65440    0.54770    0.79850    1.000
    C143     C        0.71960    0.65610    0.81640    1.000
    C144     C        0.77050    0.69110    0.86910    1.000
    H129     H        0.79090    0.74620    0.86260    1.000
    C145     C        0.78990    0.64260    0.93090    1.000
    H130     H        0.82390    0.66690    0.96530    1.000
    C146     C        0.82060    0.87190    0.67970    1.000
    H131     H        0.86960    0.89530    0.68690    1.000
    C147     C        0.79840    0.80480    0.72510    1.000
    H132     H        0.83170    0.78360    0.76150    1.000
    C148     C        0.72450    0.76900    0.71543    1.000
    C149     C        0.67700    0.80600    0.66090    1.000
    H133     H        0.62690    0.78560    0.65400    1.000
    C150     C        0.70470    0.87230    0.61770    1.000
    H134     H        0.67240    0.89520    0.58110    1.000
    C151     C        0.68120    0.41810    0.15194    1.000
    H135     H        0.70900    0.45350    0.18420    1.000
    C152     C        0.61380    0.38200    0.17740    1.000
    H136     H        0.59660    0.39370    0.22550    1.000
    C153     C        0.57060    0.32710    0.13050    1.000
    C154     C        0.60130    0.31170    0.05880    1.000
    H137     H        0.57600    0.27490    0.02580    1.000
    C155     C        0.66900    0.35190    0.03840    1.000
    H138     H        0.68790    0.34150    0.99070    1.000
    C156     C        0.38340    0.19540    0.00980    1.000
    H139     H        0.36910    0.20760    0.96090    1.000
    C157     C        0.42990    0.25430    0.04620    1.000
    H140     H        0.44520    0.30510    0.02260    1.000
    C158     C        0.45340    0.23650    0.11850    1.000
    C159     C        0.42440    0.16260    0.15210    1.000
    H141     H        0.43630    0.15020    0.20150    1.000
    C160     C        0.37760    0.10730    0.11130    1.000
    H142     H        0.35920    0.05760    0.13440    1.000
    N43      N        0.76293    0.56273    0.94482    1.000
    N44      N        0.69557    0.69700    0.75240    1.000
    H143     H        0.65560    0.67410    0.73170    1.000
    N45      N        0.77632    0.90610    0.62552    1.000
    N46      N        0.70971    0.40537    0.08254    1.000
    N47      N        0.50459    0.28980    0.15786    1.000
    H144     H        0.49350    0.30010    0.20380    1.000
    N48      N        0.35751    0.12200    0.04008    1.000
    Cd8      Cd       0.81702    0.48433    0.04444    1.000
