# CIF file generated by openbabel 3.1.0, see https://openbabel.org
data_I
_chemical_name_common 'AFOTOF_clean'
_cell_length_a 8.655
_cell_length_b 14.105
_cell_length_c 15.1056
_cell_angle_alpha 115.144
_cell_angle_beta 106.647
_cell_angle_gamma 90
_space_group_name_H-M_alt 'P 1'
_space_group_name_Hall 'P 1'
loop_
    _symmetry_equiv_pos_as_xyz
    x,y,z
loop_
    _atom_site_label
    _atom_site_type_symbol
    _atom_site_fract_x
    _atom_site_fract_y
    _atom_site_fract_z
    _atom_site_occupancy
    Eu1      Eu       0.50507    0.00551    0.54554    1.000
    Eu2      Eu       0.95953    0.99449    0.45446    1.000
    H1       H        0.44520    0.80160    0.66460    1.000
    H2       H        0.44970    0.64640    0.68960    1.000
    H3       H        0.97720    0.55920    0.53180    1.000
    H4       H        0.96440    0.71950    0.52400    1.000
    H5       H        0.42140    0.53110    0.74640    1.000
    H6       H        0.45740    0.36260    0.73600    1.000
    H7       H        0.06650    0.23340    0.48520    1.000
    H8       H        0.04750    0.39490    0.48000    1.000
    H9       H        0.39640    0.71600    0.22800    1.000
    H10      H        0.33230    0.56800    0.06680    1.000
    H11      H        0.85870    0.58060    0.05280    1.000
    H12      H        0.94090    0.71540    0.21800    1.000
    H13      H        0.78060    0.19840    0.33540    1.000
    H14      H        0.76010    0.35360    0.31040    1.000
    H15      H        0.44540    0.44080    0.46820    1.000
    H16      H        0.44040    0.28050    0.47600    1.000
    H17      H        0.67500    0.46890    0.25360    1.000
    H18      H        0.72140    0.63740    0.26400    1.000
    H19      H        0.58130    0.76660    0.51480    1.000
    H20      H        0.56750    0.60510    0.52000    1.000
    H21      H        0.16840    0.28400    0.77200    1.000
    H22      H        0.26550    0.43200    0.93320    1.000
    H23      H        0.80590    0.41940    0.94720    1.000
    H24      H        0.72290    0.28460    0.78200    1.000
    C1       C        0.19980    0.87240    0.57460    1.000
    C2       C        0.20160    0.77200    0.58940    1.000
    C3       C        0.35120    0.75390    0.63960    1.000
    C4       C        0.35370    0.65820    0.65100    1.000
    C5       C        0.21960    0.58400    0.60660    1.000
    C6       C        0.07160    0.60740    0.55920    1.000
    C7       C        0.06460    0.70280    0.55320    1.000
    C8       C        0.22850    0.47840    0.61100    1.000
    C9       C        0.35420    0.47120    0.69200    1.000
    C10      C        0.37220    0.37020    0.68640    1.000
    C11      C        0.26860    0.28280    0.60940    1.000
    C12      C        0.14170    0.29230    0.53460    1.000
    C13      C        0.12690    0.38970    0.53360    1.000
    C14      C        0.30880    0.17310    0.59840    1.000
    C15      C        0.22180    0.83360    0.33280    1.000
    C16      C        0.17550    0.73580    0.23540    1.000
    C17      C        0.28760    0.68740    0.19220    1.000
    C18      C        0.25210    0.59620    0.09620    1.000
    C19      C        0.07920    0.54910    0.04640    1.000
    C20      C        0.96920    0.60220    0.08880    1.000
    C21      C        0.01880    0.68870    0.18580    1.000
    C22      C        0.62520    0.12760    0.42540    1.000
    C23      C        0.61220    0.22800    0.41060    1.000
    C24      C        0.71160    0.24610    0.36040    1.000
    C25      C        0.70270    0.34180    0.34900    1.000
    C26      C        0.61300    0.41600    0.39340    1.000
    C27      C        0.51240    0.39260    0.44080    1.000
    C28      C        0.51140    0.29720    0.44680    1.000
    C29      C        0.61750    0.52160    0.38900    1.000
    C30      C        0.66220    0.52880    0.30800    1.000
    C31      C        0.68580    0.62980    0.31360    1.000
    C32      C        0.65920    0.71720    0.39060    1.000
    C33      C        0.60710    0.70770    0.46540    1.000
    C34      C        0.59330    0.61030    0.46640    1.000
    C35      C        0.71040    0.82690    0.40160    1.000
    C36      C        0.88900    0.16640    0.66720    1.000
    C37      C        0.94010    0.26420    0.76460    1.000
    C38      C        0.09540    0.31260    0.80780    1.000
    C39      C        0.15590    0.40380    0.90380    1.000
    C40      C        0.03280    0.45090    0.95360    1.000
    C41      C        0.88040    0.39780    0.91120    1.000
    C42      C        0.83300    0.31130    0.81420    1.000
    O1       O        0.32870    0.91780    0.58300    1.000
    O2       O        0.06040    0.90190    0.55380    1.000
    O3       O        0.22950    0.09400    0.51920    1.000
    O4       O        0.43470    0.16910    0.66400    1.000
    O5       O        0.36760    0.87160    0.37800    1.000
    O6       O        0.10620    0.87680    0.36160    1.000
    O7       O        0.74570    0.08220    0.41700    1.000
    O8       O        0.50660    0.09810    0.44620    1.000
    O9       O        0.71030    0.90600    0.48080    1.000
    O10      O        0.77070    0.83090    0.33600    1.000
    O11      O        0.98960    0.12840    0.62200    1.000
    O12      O        0.74460    0.12320    0.63840    1.000
