# CIF file generated by openbabel 3.1.0, see https://openbabel.org
data_I
_chemical_name_common 'image0'
_cell_length_a 18.302
_cell_length_b 14.67
_cell_length_c 12.298
_cell_angle_alpha 90
_cell_angle_beta 113.62
_cell_angle_gamma 90
_space_group_name_H-M_alt 'P 1'
_space_group_name_Hall 'P 1'
loop_
    _symmetry_equiv_pos_as_xyz
    x,y,z
loop_
    _atom_site_label
    _atom_site_type_symbol
    _atom_site_fract_x
    _atom_site_fract_y
    _atom_site_fract_z
    _atom_site_occupancy
    Ag1      Ag       0.24547    0.19795    0.74462    1.000
    Cr1      Cr       0.28972    0.49510    0.47463    1.000
    O1       O        0.35130    0.41990    0.61560    1.000
    O2       O        0.20570    0.40850    0.46020    1.000
    O3       O        0.33830    0.30070    0.71500    1.000
    O4       O        0.18130    0.28740    0.55240    1.000
    C1       C        0.31400    0.35530    0.63460    1.000
    C2       C        0.22320    0.34780    0.53970    1.000
    Ag2      Ag       0.92248    0.81031    0.12852    1.000
    O5       O        0.78100    0.56940    0.16060    1.000
    O6       O        0.74310    0.58450    0.93430    1.000
    O7       O        0.85330    0.69600    0.19690    1.000
    O8       O        0.81460    0.71030    0.95780    1.000
    C3       C        0.81170    0.63790    0.13100    1.000
    C4       C        0.79030    0.64700    0.99670    1.000
    O9       O        0.88280    0.92860    0.99010    1.000
    O10      O        0.82660    0.07740    0.87130    1.000
    O11      O        0.97380    0.91240    0.91560    1.000
    O12      O        0.92160    0.08020    0.79960    1.000
    C5       C        0.91830    0.95350    0.92440    1.000
    C6       C        0.88800    0.04420    0.85740    1.000
    K1       K        0.00060    0.72960    0.86780    1.000
    Ag3      Ag       0.07350    0.65480    0.79440    1.000
    Ag4      Ag       0.04160    0.76060    0.93680    1.000
    Ag5      Ag       0.94860    0.72440    0.88190    1.000
    Ag6      Ag       0.75453    0.19795    0.75538    1.000
    Cr2      Cr       0.71028    0.49510    0.02537    1.000
    O13      O        0.64870    0.41990    0.88440    1.000
    O14      O        0.79430    0.40850    0.03980    1.000
    O15      O        0.66170    0.30070    0.78500    1.000
    O16      O        0.81870    0.28740    0.94760    1.000
    C7       C        0.68600    0.35530    0.86540    1.000
    C8       C        0.77680    0.34780    0.96030    1.000
    Ag7      Ag       0.07752    0.81031    0.37148    1.000
    O17      O        0.21900    0.56940    0.33940    1.000
    O18      O        0.25690    0.58450    0.56570    1.000
    O19      O        0.14670    0.69600    0.30310    1.000
    O20      O        0.18540    0.71030    0.54220    1.000
    C9       C        0.18830    0.63790    0.36900    1.000
    C10      C        0.20970    0.64700    0.50330    1.000
    O21      O        0.11720    0.92860    0.50990    1.000
    O22      O        0.17340    0.07740    0.62870    1.000
    O23      O        0.02620    0.91240    0.58440    1.000
    O24      O        0.07840    0.08020    0.70040    1.000
    C11      C        0.08170    0.95350    0.57560    1.000
    C12      C        0.11200    0.04420    0.64260    1.000
    K2       K        0.99940    0.72960    0.63220    1.000
    Ag8      Ag       0.92650    0.65480    0.70560    1.000
    Ag9      Ag       0.95840    0.76060    0.56320    1.000
    Ag10     Ag       0.05140    0.72440    0.61810    1.000
    Ag11     Ag       0.57752    0.68969    0.87148    1.000
    O25      O        0.71900    0.93060    0.83940    1.000
    O26      O        0.75690    0.91550    0.06570    1.000
    O27      O        0.64670    0.80400    0.80310    1.000
    O28      O        0.68540    0.78970    0.04220    1.000
    C13      C        0.68830    0.86210    0.86900    1.000
    C14      C        0.70970    0.85300    0.00330    1.000
    O29      O        0.61720    0.57140    0.00990    1.000
    O30      O        0.67340    0.42260    0.12870    1.000
    O31      O        0.52620    0.58760    0.08440    1.000
    O32      O        0.57840    0.41980    0.20040    1.000
    C15      C        0.58170    0.54650    0.07560    1.000
    C16      C        0.61200    0.45580    0.14260    1.000
    K3       K        0.49940    0.77040    0.13220    1.000
    Ag12     Ag       0.42650    0.84520    0.20560    1.000
    Ag13     Ag       0.45840    0.73940    0.06320    1.000
    Ag14     Ag       0.55140    0.77560    0.11810    1.000
    Ag15     Ag       0.25453    0.30205    0.25538    1.000
    Cr3      Cr       0.21028    0.00490    0.52537    1.000
    O33      O        0.14870    0.08010    0.38440    1.000
    O34      O        0.29430    0.09150    0.53980    1.000
    O35      O        0.16170    0.19930    0.28500    1.000
    O36      O        0.31870    0.21260    0.44760    1.000
    C17      C        0.18600    0.14470    0.36540    1.000
    C18      C        0.27680    0.15220    0.46030    1.000
    Ag16     Ag       0.42248    0.68969    0.62852    1.000
    O37      O        0.28100    0.93060    0.66060    1.000
    O38      O        0.24310    0.91550    0.43430    1.000
    O39      O        0.35330    0.80400    0.69690    1.000
    O40      O        0.31460    0.78970    0.45780    1.000
    C19      C        0.31170    0.86210    0.63100    1.000
    C20      C        0.29030    0.85300    0.49670    1.000
    O41      O        0.38280    0.57140    0.49010    1.000
    O42      O        0.32660    0.42260    0.37130    1.000
    O43      O        0.47380    0.58760    0.41560    1.000
    O44      O        0.42160    0.41980    0.29960    1.000
    C21      C        0.41830    0.54650    0.42440    1.000
    C22      C        0.38800    0.45580    0.35740    1.000
    K4       K        0.50060    0.77040    0.36780    1.000
    Ag17     Ag       0.57350    0.84520    0.29440    1.000
    Ag18     Ag       0.54160    0.73940    0.43680    1.000
    Ag19     Ag       0.44860    0.77560    0.38190    1.000
    Ag20     Ag       0.74547    0.30205    0.24462    1.000
    Cr4      Cr       0.78972    0.00490    0.97463    1.000
    O45      O        0.85130    0.08010    0.11560    1.000
    O46      O        0.70570    0.09150    0.96020    1.000
    O47      O        0.83830    0.19930    0.21500    1.000
    O48      O        0.68130    0.21260    0.05240    1.000
    C23      C        0.81400    0.14470    0.13460    1.000
    C24      C        0.72320    0.15220    0.03970    1.000
    Ag21     Ag       0.00000    0.95800    0.75000    1.000
    Ag22     Ag       0.50000    0.54200    0.25000    1.000
    Ag23     Ag       0.42248    0.31031    0.12852    1.000
    O49      O        0.28100    0.06940    0.16060    1.000
    O50      O        0.24310    0.08450    0.93430    1.000
    O51      O        0.35330    0.19600    0.19690    1.000
    O52      O        0.31460    0.21030    0.95780    1.000
    C25      C        0.31170    0.13790    0.13100    1.000
    C26      C        0.29030    0.14700    0.99670    1.000
    O53      O        0.38280    0.42860    0.99010    1.000
    O54      O        0.32660    0.57740    0.87130    1.000
    O55      O        0.47380    0.41240    0.91560    1.000
    O56      O        0.42160    0.58020    0.79960    1.000
    C27      C        0.41830    0.45350    0.92440    1.000
    C28      C        0.38800    0.54420    0.85740    1.000
    K5       K        0.50060    0.22960    0.86780    1.000
    Ag24     Ag       0.57350    0.15480    0.79440    1.000
    Ag25     Ag       0.54160    0.26060    0.93680    1.000
    Ag26     Ag       0.44860    0.22440    0.88190    1.000
    Ag27     Ag       0.74547    0.69795    0.74462    1.000
    Cr5      Cr       0.78972    0.99510    0.47463    1.000
    O57      O        0.85130    0.91990    0.61560    1.000
    O58      O        0.70570    0.90850    0.46020    1.000
    O59      O        0.83830    0.80070    0.71500    1.000
    O60      O        0.68130    0.78740    0.55240    1.000
    C29      C        0.81400    0.85530    0.63460    1.000
    C30      C        0.72320    0.84780    0.53970    1.000
    Ag28     Ag       0.57752    0.31031    0.37148    1.000
    O61      O        0.71900    0.06940    0.33940    1.000
    O62      O        0.75690    0.08450    0.56570    1.000
    O63      O        0.64670    0.19600    0.30310    1.000
    O64      O        0.68540    0.21030    0.54220    1.000
    C31      C        0.68830    0.13790    0.36900    1.000
    C32      C        0.70970    0.14700    0.50330    1.000
    O65      O        0.61720    0.42860    0.50990    1.000
    O66      O        0.67340    0.57740    0.62870    1.000
    O67      O        0.52620    0.41240    0.58440    1.000
    O68      O        0.57840    0.58020    0.70040    1.000
    C33      C        0.58170    0.45350    0.57560    1.000
    C34      C        0.61200    0.54420    0.64260    1.000
    K6       K        0.49940    0.22960    0.63220    1.000
    Ag29     Ag       0.42650    0.15480    0.70560    1.000
    Ag30     Ag       0.45840    0.26060    0.56320    1.000
    Ag31     Ag       0.55140    0.22440    0.61810    1.000
    Ag32     Ag       0.25453    0.69795    0.75538    1.000
    Cr6      Cr       0.21028    0.99510    0.02537    1.000
    O69      O        0.14870    0.91990    0.88440    1.000
    O70      O        0.29430    0.90850    0.03980    1.000
    O71      O        0.16170    0.80070    0.78500    1.000
    O72      O        0.31870    0.78740    0.94760    1.000
    C35      C        0.18600    0.85530    0.86540    1.000
    C36      C        0.27680    0.84780    0.96030    1.000
    Ag33     Ag       0.75453    0.80205    0.25538    1.000
    Cr7      Cr       0.71028    0.50490    0.52537    1.000
    O73      O        0.64870    0.58010    0.38440    1.000
    O74      O        0.79430    0.59150    0.53980    1.000
    O75      O        0.66170    0.69930    0.28500    1.000
    O76      O        0.81870    0.71260    0.44760    1.000
    C37      C        0.68600    0.64470    0.36540    1.000
    C38      C        0.77680    0.65220    0.46030    1.000
    Ag34     Ag       0.07752    0.18969    0.87148    1.000
    O77      O        0.21900    0.43060    0.83940    1.000
    O78      O        0.25690    0.41550    0.06570    1.000
    O79      O        0.14670    0.30400    0.80310    1.000
    O80      O        0.18540    0.28970    0.04220    1.000
    C39      C        0.18830    0.36210    0.86900    1.000
    C40      C        0.20970    0.35300    0.00330    1.000
    O81      O        0.11720    0.07140    0.00990    1.000
    O82      O        0.17340    0.92260    0.12870    1.000
    O83      O        0.02620    0.08760    0.08440    1.000
    O84      O        0.07840    0.91980    0.20040    1.000
    C41      C        0.08170    0.04650    0.07560    1.000
    C42      C        0.11200    0.95580    0.14260    1.000
    K7       K        0.99940    0.27040    0.13220    1.000
    Ag35     Ag       0.92650    0.34520    0.20560    1.000
    Ag36     Ag       0.95840    0.23940    0.06320    1.000
    Ag37     Ag       0.05140    0.27560    0.11810    1.000
    Ag38     Ag       0.24547    0.80205    0.24462    1.000
    Cr8      Cr       0.28972    0.50490    0.97463    1.000
    O85      O        0.35130    0.58010    0.11560    1.000
    O86      O        0.20570    0.59150    0.96020    1.000
    O87      O        0.33830    0.69930    0.21500    1.000
    O88      O        0.18130    0.71260    0.05240    1.000
    C43      C        0.31400    0.64470    0.13460    1.000
    C44      C        0.22320    0.65220    0.03970    1.000
    Ag39     Ag       0.92248    0.18969    0.62852    1.000
    O89      O        0.78100    0.43060    0.66060    1.000
    O90      O        0.74310    0.41550    0.43430    1.000
    O91      O        0.85330    0.30400    0.69690    1.000
    O92      O        0.81460    0.28970    0.45780    1.000
    C45      C        0.81170    0.36210    0.63100    1.000
    C46      C        0.79030    0.35300    0.49670    1.000
    O93      O        0.88280    0.07140    0.49010    1.000
    O94      O        0.82660    0.92260    0.37130    1.000
    O95      O        0.97380    0.08760    0.41560    1.000
    O96      O        0.92160    0.91980    0.29960    1.000
    C47      C        0.91830    0.04650    0.42440    1.000
    C48      C        0.88800    0.95580    0.35740    1.000
    K8       K        0.00060    0.27040    0.36780    1.000
    Ag40     Ag       0.07350    0.34520    0.29440    1.000
    Ag41     Ag       0.04160    0.23940    0.43680    1.000
    Ag42     Ag       0.94860    0.27560    0.38190    1.000
    Ag43     Ag       0.50000    0.45800    0.75000    1.000
    Ag44     Ag       0.00000    0.04200    0.25000    1.000
