# CIF file generated by openbabel 3.1.0, see https://openbabel.org
data_I
_chemical_name_common 'COMDOY_clean'
_cell_length_a 6.734
_cell_length_b 11.062
_cell_length_c 11.1809
_cell_angle_alpha 119.649
_cell_angle_beta 107.526
_cell_angle_gamma 90
_space_group_name_H-M_alt 'P 1'
_space_group_name_Hall 'P 1'
loop_
    _symmetry_equiv_pos_as_xyz
    x,y,z
loop_
    _atom_site_label
    _atom_site_type_symbol
    _atom_site_fract_x
    _atom_site_fract_y
    _atom_site_fract_z
    _atom_site_occupancy
    Ga1      Ga       0.00000    0.50000    0.00000    1.000
    Ga2      Ga       0.50000    0.50000    0.00000    1.000
    H1       H        0.84850    0.51220    0.61480    1.000
    H2       H        0.65150    0.89740    0.38520    1.000
    H3       H        0.73370    0.48780    0.38520    1.000
    H4       H        0.76630    0.10260    0.61480    1.000
    H5       H        0.15150    0.48780    0.38520    1.000
    H6       H        0.34850    0.10260    0.61480    1.000
    H7       H        0.26630    0.51220    0.61480    1.000
    H8       H        0.23370    0.89740    0.38520    1.000
    H9       H        0.75000    0.34700    0.00000    1.000
    H10      H        0.25000    0.65300    0.00000    1.000
    C1       C        0.70560    0.50710    0.56940    1.000
    C2       C        0.79440    0.93770    0.43060    1.000
    C3       C        0.63620    0.49290    0.43060    1.000
    C4       C        0.86380    0.06230    0.56940    1.000
    C5       C        0.29440    0.49290    0.43060    1.000
    C6       C        0.20560    0.06230    0.56940    1.000
    C7       C        0.36380    0.50710    0.56940    1.000
    C8       C        0.13620    0.93770    0.43060    1.000
    C9       C        0.56870    0.51350    0.63740    1.000
    C10      C        0.64420    0.52810    0.78840    1.000
    C11      C        0.93130    0.87610    0.36260    1.000
    C12      C        0.85580    0.73970    0.21160    1.000
    C13      C        0.43130    0.48650    0.36260    1.000
    C14      C        0.35580    0.47190    0.21160    1.000
    C15      C        0.06870    0.12390    0.63740    1.000
    C16      C        0.14420    0.26030    0.78840    1.000
    O1       O        0.83180    0.53250    0.84200    1.000
    O2       O        0.66820    0.69050    0.15800    1.000
    O3       O        0.48980    0.46750    0.15800    1.000
    O4       O        0.01020    0.30950    0.84200    1.000
    O5       O        0.16820    0.46750    0.15800    1.000
    O6       O        0.33180    0.30950    0.84200    1.000
    O7       O        0.51020    0.53250    0.84200    1.000
    O8       O        0.98980    0.69050    0.15800    1.000
    O9       O        0.75000    0.42080    0.00000    1.000
    O10      O        0.25000    0.57920    0.00000    1.000
