# CIF file generated by openbabel 3.1.0, see https://openbabel.org
data_I
_chemical_name_common 'image0'
_cell_length_a 14.8952
_cell_length_b 9.7133
_cell_length_c 13.6878
_cell_angle_alpha 90
_cell_angle_beta 90
_cell_angle_gamma 90
_space_group_name_H-M_alt 'P 1'
_space_group_name_Hall 'P 1'
loop_
    _symmetry_equiv_pos_as_xyz
    x,y,z
loop_
    _atom_site_label
    _atom_site_type_symbol
    _atom_site_fract_x
    _atom_site_fract_y
    _atom_site_fract_z
    _atom_site_occupancy
    O1       O        0.08541    0.30404    0.36939    1.000
    O2       O        0.10816    0.14201    0.65694    1.000
    O3       O        0.58541    0.80404    0.36939    1.000
    O4       O        0.60816    0.64201    0.65694    1.000
    O5       O        0.91459    0.69596    0.86939    1.000
    O6       O        0.89184    0.85799    0.15694    1.000
    O7       O        0.41459    0.19596    0.86939    1.000
    O8       O        0.39184    0.35799    0.15694    1.000
    O9       O        0.91459    0.30404    0.13061    1.000
    O10      O        0.89184    0.14201    0.84306    1.000
    O11      O        0.41459    0.80404    0.13061    1.000
    O12      O        0.39184    0.64201    0.84306    1.000
    O13      O        0.08541    0.69596    0.63061    1.000
    O14      O        0.10816    0.85799    0.34306    1.000
    O15      O        0.58541    0.19596    0.63061    1.000
    O16      O        0.60816    0.35799    0.34306    1.000
    O17      O        0.91459    0.69596    0.63061    1.000
    O18      O        0.89184    0.85799    0.34306    1.000
    O19      O        0.41459    0.19596    0.63061    1.000
    O20      O        0.39184    0.35799    0.34306    1.000
    O21      O        0.08541    0.30404    0.13061    1.000
    O22      O        0.10816    0.14201    0.84306    1.000
    O23      O        0.58541    0.80404    0.13061    1.000
    O24      O        0.60816    0.64201    0.84306    1.000
    O25      O        0.08541    0.69596    0.86939    1.000
    O26      O        0.10816    0.85799    0.15694    1.000
    O27      O        0.58541    0.19596    0.86939    1.000
    O28      O        0.60816    0.35799    0.15694    1.000
    O29      O        0.91459    0.30404    0.36939    1.000
    O30      O        0.89184    0.14201    0.65694    1.000
    O31      O        0.41459    0.80404    0.36939    1.000
    O32      O        0.39184    0.64201    0.65694    1.000
    Co1      Co       0.00000    0.04940    0.61247    1.000
    P1       P        0.00000    0.27469    0.42756    1.000
    O33      O        0.00000    0.12570    0.46554    1.000
    O34      O        0.00000    0.37130    0.51825    1.000
    Co2      Co       0.50000    0.54940    0.61247    1.000
    P2       P        0.50000    0.77469    0.42756    1.000
    O35      O        0.50000    0.62570    0.46554    1.000
    O36      O        0.50000    0.87130    0.51825    1.000
    Co3      Co       0.00000    0.95060    0.11247    1.000
    P3       P        0.00000    0.72531    0.92756    1.000
    O37      O        0.00000    0.87430    0.96554    1.000
    O38      O        0.00000    0.62870    0.01825    1.000
    Co4      Co       0.50000    0.45060    0.11247    1.000
    P4       P        0.50000    0.22531    0.92756    1.000
    O39      O        0.50000    0.37430    0.96554    1.000
    O40      O        0.50000    0.12870    0.01825    1.000
    Co5      Co       0.00000    0.04940    0.88753    1.000
    P5       P        0.00000    0.27469    0.07244    1.000
    O41      O        0.00000    0.12570    0.03446    1.000
    O42      O        0.00000    0.37130    0.98175    1.000
    Co6      Co       0.50000    0.54940    0.88753    1.000
    P6       P        0.50000    0.77469    0.07244    1.000
    O43      O        0.50000    0.62570    0.03446    1.000
    O44      O        0.50000    0.87130    0.98175    1.000
    Co7      Co       0.00000    0.95060    0.38753    1.000
    P7       P        0.00000    0.72531    0.57244    1.000
    O45      O        0.00000    0.87430    0.53446    1.000
    O46      O        0.00000    0.62870    0.48175    1.000
    Co8      Co       0.50000    0.45060    0.38753    1.000
    P8       P        0.50000    0.22531    0.57244    1.000
    O47      O        0.50000    0.37430    0.53446    1.000
    O48      O        0.50000    0.12870    0.48175    1.000
    Co9      Co       0.12905    0.21451    0.25000    1.000
    Co10     Co       0.62905    0.71451    0.25000    1.000
    Co11     Co       0.87095    0.78549    0.75000    1.000
    Co12     Co       0.37095    0.28549    0.75000    1.000
    Co13     Co       0.87095    0.21451    0.25000    1.000
    Co14     Co       0.37095    0.71451    0.25000    1.000
    Co15     Co       0.12905    0.78549    0.75000    1.000
    Co16     Co       0.62905    0.28549    0.75000    1.000
    P9       P        0.16276    0.11257    0.75000    1.000
    O49      O        0.19329    0.96090    0.75000    1.000
    O50      O        0.24514    0.20390    0.75000    1.000
    P10      P        0.66276    0.61257    0.75000    1.000
    O51      O        0.69329    0.46090    0.75000    1.000
    O52      O        0.74514    0.70390    0.75000    1.000
    P11      P        0.83724    0.88743    0.25000    1.000
    O53      O        0.80671    0.03910    0.25000    1.000
    O54      O        0.75486    0.79610    0.25000    1.000
    P12      P        0.33724    0.38743    0.25000    1.000
    O55      O        0.30671    0.53910    0.25000    1.000
    O56      O        0.25486    0.29610    0.25000    1.000
    P13      P        0.83724    0.11257    0.75000    1.000
    O57      O        0.80671    0.96090    0.75000    1.000
    O58      O        0.75486    0.20390    0.75000    1.000
    P14      P        0.33724    0.61257    0.75000    1.000
    O59      O        0.30671    0.46090    0.75000    1.000
    O60      O        0.25486    0.70390    0.75000    1.000
    P15      P        0.16276    0.88743    0.25000    1.000
    O61      O        0.19329    0.03910    0.25000    1.000
    O62      O        0.24514    0.79610    0.25000    1.000
    P16      P        0.66276    0.38743    0.25000    1.000
    O63      O        0.69329    0.53910    0.25000    1.000
    O64      O        0.74514    0.29610    0.25000    1.000
