# CIF file generated by openbabel 3.1.0, see https://openbabel.org
data_I
_chemical_name_common 'image0'
_cell_length_a 19.703
_cell_length_b 9.5197
_cell_length_c 20.127
_cell_angle_alpha 90
_cell_angle_beta 106.26
_cell_angle_gamma 90
_space_group_name_H-M_alt 'P 1'
_space_group_name_Hall 'P 1'
loop_
    _symmetry_equiv_pos_as_xyz
    x,y,z
loop_
    _atom_site_label
    _atom_site_type_symbol
    _atom_site_fract_x
    _atom_site_fract_y
    _atom_site_fract_z
    _atom_site_occupancy
    U1       U        0.10488    0.63492    0.11128    1.000
    O1       O        0.09320    0.62000    0.21920    1.000
    C1       C        0.11790    0.53820    0.27610    1.000
    C2       C        0.18020    0.46460    0.29020    1.000
    H1       H        0.20630    0.46580    0.25830    1.000
    C3       C        0.20540    0.38770    0.35160    1.000
    C4       C        0.16530    0.38330    0.39840    1.000
    H2       H        0.18090    0.33120    0.43890    1.000
    C5       C        0.10140    0.45730    0.38450    1.000
    C6       C        0.07770    0.53040    0.32390    1.000
    H3       H        0.03420    0.57580    0.31400    1.000
    C7       C        0.26990    0.30100    0.36340    1.000
    C8       C        0.05650    0.44770    0.43360    1.000
    O2       O        0.29680    0.27050    0.31520    1.000
    O3       O        0.30010    0.25780    0.42420    1.000
    O4       O        0.08200    0.39140    0.49120    1.000
    H4       H        0.12300    0.35400    0.50000    1.000
    O5       O        0.99550    0.49450    0.41490    1.000
    U2       U        0.60488    0.13492    0.11128    1.000
    O6       O        0.59320    0.12000    0.21920    1.000
    C9       C        0.61790    0.03820    0.27610    1.000
    C10      C        0.68020    0.96460    0.29020    1.000
    H5       H        0.70630    0.96580    0.25830    1.000
    C11      C        0.70540    0.88770    0.35160    1.000
    C12      C        0.66530    0.88330    0.39840    1.000
    H6       H        0.68090    0.83120    0.43890    1.000
    C13      C        0.60140    0.95730    0.38450    1.000
    C14      C        0.57770    0.03040    0.32390    1.000
    H7       H        0.53420    0.07580    0.31400    1.000
    C15      C        0.76990    0.80100    0.36340    1.000
    C16      C        0.55650    0.94770    0.43360    1.000
    O7       O        0.79680    0.77050    0.31520    1.000
    O8       O        0.80010    0.75780    0.42420    1.000
    O9       O        0.58200    0.89140    0.49120    1.000
    H8       H        0.62300    0.85400    0.50000    1.000
    O10      O        0.49550    0.99450    0.41490    1.000
    U3       U        0.89512    0.63492    0.38872    1.000
    O11      O        0.90680    0.62000    0.28080    1.000
    C17      C        0.88210    0.53820    0.22390    1.000
    C18      C        0.81980    0.46460    0.20980    1.000
    H9       H        0.79370    0.46580    0.24170    1.000
    C19      C        0.79460    0.38770    0.14840    1.000
    C20      C        0.83470    0.38330    0.10160    1.000
    H10      H        0.81910    0.33120    0.06110    1.000
    C21      C        0.89860    0.45730    0.11550    1.000
    C22      C        0.92230    0.53040    0.17610    1.000
    H11      H        0.96580    0.57580    0.18600    1.000
    C23      C        0.73010    0.30100    0.13660    1.000
    C24      C        0.94350    0.44770    0.06640    1.000
    O12      O        0.70320    0.27050    0.18480    1.000
    O13      O        0.69990    0.25780    0.07580    1.000
    O14      O        0.91800    0.39140    0.00880    1.000
    H12      H        0.87700    0.35400    0.00000    1.000
    O15      O        0.00450    0.49450    0.08510    1.000
    U4       U        0.39512    0.13492    0.38872    1.000
    O16      O        0.40680    0.12000    0.28080    1.000
    C25      C        0.38210    0.03820    0.22390    1.000
    C26      C        0.31980    0.96460    0.20980    1.000
    H13      H        0.29370    0.96580    0.24170    1.000
    C27      C        0.29460    0.88770    0.14840    1.000
    C28      C        0.33470    0.88330    0.10160    1.000
    H14      H        0.31910    0.83120    0.06110    1.000
    C29      C        0.39860    0.95730    0.11550    1.000
    C30      C        0.42230    0.03040    0.17610    1.000
    H15      H        0.46580    0.07580    0.18600    1.000
    C31      C        0.23010    0.80100    0.13660    1.000
    C32      C        0.44350    0.94770    0.06640    1.000
    O17      O        0.20320    0.77050    0.18480    1.000
    O18      O        0.19990    0.75780    0.07580    1.000
    O19      O        0.41800    0.89140    0.00880    1.000
    H16      H        0.37700    0.85400    0.00000    1.000
    O20      O        0.50450    0.99450    0.08510    1.000
    U5       U        0.89512    0.36508    0.88872    1.000
    O21      O        0.90680    0.38000    0.78080    1.000
    C33      C        0.88210    0.46180    0.72390    1.000
    C34      C        0.81980    0.53540    0.70980    1.000
    H17      H        0.79370    0.53420    0.74170    1.000
    C35      C        0.79460    0.61230    0.64840    1.000
    C36      C        0.83470    0.61670    0.60160    1.000
    H18      H        0.81910    0.66880    0.56110    1.000
    C37      C        0.89860    0.54270    0.61550    1.000
    C38      C        0.92230    0.46960    0.67610    1.000
    H19      H        0.96580    0.42420    0.68600    1.000
    C39      C        0.73010    0.69900    0.63660    1.000
    C40      C        0.94350    0.55230    0.56640    1.000
    O22      O        0.70320    0.72950    0.68480    1.000
    O23      O        0.69990    0.74220    0.57580    1.000
    O24      O        0.91800    0.60860    0.50880    1.000
    H20      H        0.87700    0.64600    0.50000    1.000
    O25      O        0.00450    0.50550    0.58510    1.000
    U6       U        0.39512    0.86508    0.88872    1.000
    O26      O        0.40680    0.88000    0.78080    1.000
    C41      C        0.38210    0.96180    0.72390    1.000
    C42      C        0.31980    0.03540    0.70980    1.000
    H21      H        0.29370    0.03420    0.74170    1.000
    C43      C        0.29460    0.11230    0.64840    1.000
    C44      C        0.33470    0.11670    0.60160    1.000
    H22      H        0.31910    0.16880    0.56110    1.000
    C45      C        0.39860    0.04270    0.61550    1.000
    C46      C        0.42230    0.96960    0.67610    1.000
    H23      H        0.46580    0.92420    0.68600    1.000
    C47      C        0.23010    0.19900    0.63660    1.000
    C48      C        0.44350    0.05230    0.56640    1.000
    O27      O        0.20320    0.22950    0.68480    1.000
    O28      O        0.19990    0.24220    0.57580    1.000
    O29      O        0.41800    0.10860    0.50880    1.000
    H24      H        0.37700    0.14600    0.50000    1.000
    O30      O        0.50450    0.00550    0.58510    1.000
    U7       U        0.10488    0.36508    0.61128    1.000
    O31      O        0.09320    0.38000    0.71920    1.000
    C49      C        0.11790    0.46180    0.77610    1.000
    C50      C        0.18020    0.53540    0.79020    1.000
    H25      H        0.20630    0.53420    0.75830    1.000
    C51      C        0.20540    0.61230    0.85160    1.000
    C52      C        0.16530    0.61670    0.89840    1.000
    H26      H        0.18090    0.66880    0.93890    1.000
    C53      C        0.10140    0.54270    0.88450    1.000
    C54      C        0.07770    0.46960    0.82390    1.000
    H27      H        0.03420    0.42420    0.81400    1.000
    C55      C        0.26990    0.69900    0.86340    1.000
    C56      C        0.05650    0.55230    0.93360    1.000
    O32      O        0.29680    0.72950    0.81520    1.000
    O33      O        0.30010    0.74220    0.92420    1.000
    O34      O        0.08200    0.60860    0.99120    1.000
    H28      H        0.12300    0.64600    0.00000    1.000
    O35      O        0.99550    0.50550    0.91490    1.000
    U8       U        0.60488    0.86508    0.61128    1.000
    O36      O        0.59320    0.88000    0.71920    1.000
    C57      C        0.61790    0.96180    0.77610    1.000
    C58      C        0.68020    0.03540    0.79020    1.000
    H29      H        0.70630    0.03420    0.75830    1.000
    C59      C        0.70540    0.11230    0.85160    1.000
    C60      C        0.66530    0.11670    0.89840    1.000
    H30      H        0.68090    0.16880    0.93890    1.000
    C61      C        0.60140    0.04270    0.88450    1.000
    C62      C        0.57770    0.96960    0.82390    1.000
    H31      H        0.53420    0.92420    0.81400    1.000
    C63      C        0.76990    0.19900    0.86340    1.000
    C64      C        0.55650    0.05230    0.93360    1.000
    O37      O        0.79680    0.22950    0.81520    1.000
    O38      O        0.80010    0.24220    0.92420    1.000
    O39      O        0.58200    0.10860    0.99120    1.000
    H32      H        0.62300    0.14600    0.00000    1.000
    O40      O        0.49550    0.00550    0.91490    1.000
