# CIF file generated by openbabel 3.1.0, see https://openbabel.org
data_I
_chemical_name_common 'NATXUC_clean'
_cell_length_a 11.3424
_cell_length_b 15.4516
_cell_length_c 51.319
_cell_angle_alpha 90
_cell_angle_beta 90
_cell_angle_gamma 96.009
_space_group_name_H-M_alt 'P 1'
_space_group_name_Hall 'P 1'
loop_
    _symmetry_equiv_pos_as_xyz
    x,y,z
loop_
    _atom_site_label
    _atom_site_type_symbol
    _atom_site_fract_x
    _atom_site_fract_y
    _atom_site_fract_z
    _atom_site_occupancy
    Ag1      Ag       0.44718    0.20761    0.85795    1.000
    Ag2      Ag       0.27669    0.18281    0.80886    1.000
    Ag3      Ag       0.30747    0.99611    0.80448    1.000
    Ag4      Ag       0.45895    0.02203    0.85330    1.000
    Ag5      Ag       0.30027    0.11155    0.89440    1.000
    Ag6      Ag       0.03418    0.10701    0.83787    1.000
    Ag7      Ag       0.12004    0.93726    0.84192    1.000
    Ag8      Ag       0.36198    0.87571    0.88394    1.000
    Ag9      Ag       0.17227    0.06979    0.94128    1.000
    Ag10     Ag       0.01151    0.02210    0.89066    1.000
    Ag11     Ag       0.02334    0.83479    0.88730    1.000
    Ag12     Ag       0.16202    0.86692    0.94199    1.000
    Ag13     Ag       0.39969    0.98379    0.93171    1.000
    Ag14     Ag       0.80286    0.12774    0.91602    1.000
    Ag15     Ag       0.74297    0.00764    0.87138    1.000
    Ag16     Ag       0.76130    0.29103    0.87464    1.000
    Ag17     Ag       0.76248    0.17255    0.83258    1.000
    Ag18     Ag       0.60987    0.89566    0.82888    1.000
    Ag19     Ag       0.68680    0.75503    0.87958    1.000
    Ag20     Ag       0.67259    0.87709    0.92099    1.000
    Ag21     Ag       0.05282    0.79239    0.35795    1.000
    Ag22     Ag       0.22331    0.81719    0.30886    1.000
    Ag23     Ag       0.19253    0.00389    0.30448    1.000
    Ag24     Ag       0.04105    0.97797    0.35330    1.000
    Ag25     Ag       0.19973    0.88845    0.39440    1.000
    Ag26     Ag       0.46582    0.89299    0.33787    1.000
    Ag27     Ag       0.37996    0.06274    0.34192    1.000
    Ag28     Ag       0.13802    0.12429    0.38394    1.000
    Ag29     Ag       0.32773    0.93021    0.44128    1.000
    Ag30     Ag       0.48849    0.97790    0.39066    1.000
    Ag31     Ag       0.47666    0.16521    0.38730    1.000
    Ag32     Ag       0.33798    0.13308    0.44199    1.000
    Ag33     Ag       0.10031    0.01621    0.43171    1.000
    Ag34     Ag       0.69714    0.87226    0.41602    1.000
    Ag35     Ag       0.75703    0.99236    0.37138    1.000
    Ag36     Ag       0.73870    0.70897    0.37464    1.000
    Ag37     Ag       0.73752    0.82745    0.33258    1.000
    Ag38     Ag       0.89013    0.10434    0.32888    1.000
    Ag39     Ag       0.81320    0.24497    0.37958    1.000
    Ag40     Ag       0.82741    0.12291    0.42099    1.000
    Ag41     Ag       0.55282    0.79239    0.14205    1.000
    Ag42     Ag       0.72331    0.81719    0.19114    1.000
    Ag43     Ag       0.69253    0.00389    0.19552    1.000
    Ag44     Ag       0.54105    0.97797    0.14670    1.000
    Ag45     Ag       0.69973    0.88845    0.10560    1.000
    Ag46     Ag       0.96582    0.89299    0.16213    1.000
    Ag47     Ag       0.87996    0.06274    0.15808    1.000
    Ag48     Ag       0.63802    0.12429    0.11606    1.000
    Ag49     Ag       0.82773    0.93021    0.05872    1.000
    Ag50     Ag       0.98849    0.97790    0.10934    1.000
    Ag51     Ag       0.97666    0.16521    0.11270    1.000
    Ag52     Ag       0.83798    0.13308    0.05801    1.000
    Ag53     Ag       0.60031    0.01621    0.06829    1.000
    Ag54     Ag       0.19714    0.87226    0.08398    1.000
    Ag55     Ag       0.25703    0.99236    0.12862    1.000
    Ag56     Ag       0.23870    0.70897    0.12536    1.000
    Ag57     Ag       0.23752    0.82745    0.16742    1.000
    Ag58     Ag       0.39013    0.10434    0.17112    1.000
    Ag59     Ag       0.31320    0.24497    0.12042    1.000
    Ag60     Ag       0.32741    0.12291    0.07901    1.000
    Ag61     Ag       0.94718    0.20761    0.64205    1.000
    Ag62     Ag       0.77669    0.18281    0.69114    1.000
    Ag63     Ag       0.80747    0.99611    0.69552    1.000
    Ag64     Ag       0.95895    0.02203    0.64670    1.000
    Ag65     Ag       0.80027    0.11155    0.60560    1.000
    Ag66     Ag       0.53418    0.10701    0.66213    1.000
    Ag67     Ag       0.62004    0.93726    0.65808    1.000
    Ag68     Ag       0.86198    0.87571    0.61606    1.000
    Ag69     Ag       0.67227    0.06979    0.55872    1.000
    Ag70     Ag       0.51151    0.02210    0.60934    1.000
    Ag71     Ag       0.52334    0.83479    0.61270    1.000
    Ag72     Ag       0.66202    0.86692    0.55801    1.000
    Ag73     Ag       0.89969    0.98379    0.56829    1.000
    Ag74     Ag       0.30286    0.12774    0.58398    1.000
    Ag75     Ag       0.24297    0.00764    0.62862    1.000
    Ag76     Ag       0.26130    0.29103    0.62536    1.000
    Ag77     Ag       0.26248    0.17255    0.66742    1.000
    Ag78     Ag       0.10987    0.89566    0.67112    1.000
    Ag79     Ag       0.18680    0.75503    0.62042    1.000
    Ag80     Ag       0.17259    0.87709    0.57901    1.000
    H1       H        0.87670    0.00920    0.75380    1.000
    H2       H        0.58550    0.88840    0.72820    1.000
    H3       H        0.52460    0.85910    0.76980    1.000
    H4       H        0.58450    0.12520    0.74130    1.000
    H5       H        0.89450    0.25850    0.73980    1.000
    H6       H        0.90480    0.25280    0.78350    1.000
    H7       H        0.92460    0.94320    0.00220    1.000
    H8       H        0.61490    0.82890    0.02110    1.000
    H9       H        0.56540    0.81530    0.97690    1.000
    H10      H        0.63150    0.07200    0.00730    1.000
    H11      H        0.94200    0.20820    0.00910    1.000
    H12      H        0.94720    0.20780    0.96520    1.000
    H13      H        0.33560    0.54870    0.87220    1.000
    H14      H        0.41120    0.47550    0.87140    1.000
    H15      H        0.56690    0.42180    0.87460    1.000
    H16      H        0.90800    0.47480    0.87900    1.000
    H17      H        0.88600    0.62070    0.87950    1.000
    H18      H        0.62330    0.99080    0.25380    1.000
    H19      H        0.91450    0.11160    0.22820    1.000
    H20      H        0.97540    0.14090    0.26980    1.000
    H21      H        0.91550    0.87480    0.24130    1.000
    H22      H        0.60550    0.74150    0.23980    1.000
    H23      H        0.59520    0.74720    0.28350    1.000
    H24      H        0.57540    0.05680    0.50220    1.000
    H25      H        0.88510    0.17110    0.52110    1.000
    H26      H        0.93460    0.18470    0.47690    1.000
    H27      H        0.86850    0.92800    0.50730    1.000
    H28      H        0.55800    0.79180    0.50910    1.000
    H29      H        0.55280    0.79220    0.46520    1.000
    H30      H        0.16440    0.45130    0.37220    1.000
    H31      H        0.08880    0.52450    0.37140    1.000
    H32      H        0.93310    0.57820    0.37460    1.000
    H33      H        0.59200    0.52520    0.37900    1.000
    H34      H        0.61400    0.37930    0.37950    1.000
    H35      H        0.12330    0.99080    0.24620    1.000
    H36      H        0.41450    0.11160    0.27180    1.000
    H37      H        0.47540    0.14090    0.23020    1.000
    H38      H        0.41550    0.87480    0.25870    1.000
    H39      H        0.10550    0.74150    0.26020    1.000
    H40      H        0.09520    0.74720    0.21650    1.000
    H41      H        0.07540    0.05680    0.99780    1.000
    H42      H        0.38510    0.17110    0.97890    1.000
    H43      H        0.43460    0.18470    0.02310    1.000
    H44      H        0.36850    0.92800    0.99270    1.000
    H45      H        0.05800    0.79180    0.99090    1.000
    H46      H        0.05280    0.79220    0.03480    1.000
    H47      H        0.66440    0.45130    0.12780    1.000
    H48      H        0.58880    0.52450    0.12860    1.000
    H49      H        0.43310    0.57820    0.12540    1.000
    H50      H        0.09200    0.52520    0.12100    1.000
    H51      H        0.11400    0.37930    0.12050    1.000
    H52      H        0.37670    0.00920    0.74620    1.000
    H53      H        0.08550    0.88840    0.77180    1.000
    H54      H        0.02460    0.85910    0.73020    1.000
    H55      H        0.08450    0.12520    0.75870    1.000
    H56      H        0.39450    0.25850    0.76020    1.000
    H57      H        0.40480    0.25280    0.71650    1.000
    H58      H        0.42460    0.94320    0.49780    1.000
    H59      H        0.11490    0.82890    0.47890    1.000
    H60      H        0.06540    0.81530    0.52310    1.000
    H61      H        0.13150    0.07200    0.49270    1.000
    H62      H        0.44200    0.20820    0.49090    1.000
    H63      H        0.44720    0.20780    0.53480    1.000
    H64      H        0.83560    0.54870    0.62780    1.000
    H65      H        0.91120    0.47550    0.62860    1.000
    H66      H        0.06690    0.42180    0.62540    1.000
    H67      H        0.40800    0.47480    0.62100    1.000
    H68      H        0.38600    0.62070    0.62050    1.000
    C1       C        0.31200    0.10280    0.84750    1.000
    C2       C        0.22500    0.06250    0.83930    1.000
    C3       C        0.23710    0.97200    0.91030    1.000
    C4       C        0.15190    0.93730    0.89960    1.000
    C5       C        0.89770    0.11250    0.87540    1.000
    C6       C        0.83220    0.16900    0.87140    1.000
    C7       C        0.61650    0.87870    0.88130    1.000
    C8       C        0.55610    0.92470    0.86950    1.000
    C9       C        0.10970    0.24290    0.91340    1.000
    C10      C        0.05520    0.32850    0.91280    1.000
    C11      C        0.12380    0.39970    0.92860    1.000
    C12      C        0.09270    0.30960    0.82370    1.000
    C13      C        0.05940    0.40270    0.82230    1.000
    C14      C        0.08100    0.44140    0.79530    1.000
    C15      C        0.51150    0.24400    0.91800    1.000
    C16      C        0.57610    0.29730    0.93973    1.000
    C17      C        0.51520    0.37710    0.94720    1.000
    C18      C        0.91730    0.72830    0.93580    1.000
    C19      C        0.84180    0.65000    0.94740    1.000
    C20      C        0.85870    0.63060    0.97610    1.000
    C21      C        0.92850    0.78660    0.83080    1.000
    C22      C        0.85400    0.71420    0.81580    1.000
    C23      C        0.87890    0.70790    0.78690    1.000
    C24      C        0.85170    0.98880    0.80480    1.000
    C25      C        0.77060    0.95720    0.78210    1.000
    C26      C        0.80410    0.97680    0.75670    1.000
    C27      C        0.63520    0.90780    0.74190    1.000
    C28      C        0.59870    0.88940    0.76690    1.000
    C29      C        0.56020    0.09840    0.79250    1.000
    C30      C        0.65600    0.14710    0.77650    1.000
    C31      C        0.65220    0.15100    0.74960    1.000
    C32      C        0.83220    0.22840    0.74890    1.000
    C33      C        0.83830    0.22560    0.77510    1.000
    C34      C        0.90660    0.95610    0.95220    1.000
    C35      C        0.81920    0.91370    0.97180    1.000
    C36      C        0.84900    0.91900    0.99760    1.000
    C37      C        0.66910    0.85140    0.00860    1.000
    C38      C        0.63870    0.84300    0.98180    1.000
    C39      C        0.59920    0.05640    0.95670    1.000
    C40      C        0.70130    0.10120    0.97260    1.000
    C41      C        0.69790    0.09970    0.99900    1.000
    C42      C        0.87900    0.17890    0.00010    1.000
    C43      C        0.88170    0.17940    0.97370    1.000
    C44      C        0.50110    0.58680    0.87490    1.000
    C45      C        0.62170    0.55010    0.87560    1.000
    C46      C        0.63400    0.46180    0.87540    1.000
    C47      C        0.83220    0.49250    0.87810    1.000
    C48      C        0.81890    0.58070    0.87850    1.000
    C49      C        0.18800    0.89720    0.34750    1.000
    C50      C        0.27500    0.93750    0.33930    1.000
    C51      C        0.26290    0.02800    0.41030    1.000
    C52      C        0.34810    0.06270    0.39960    1.000
    C53      C        0.60230    0.88750    0.37540    1.000
    C54      C        0.66780    0.83100    0.37140    1.000
    C55      C        0.88350    0.12130    0.38130    1.000
    C56      C        0.94390    0.07530    0.36950    1.000
    C57      C        0.39030    0.75710    0.41340    1.000
    C58      C        0.44480    0.67150    0.41280    1.000
    C59      C        0.37620    0.60030    0.42860    1.000
    C60      C        0.40730    0.69040    0.32370    1.000
    C61      C        0.44060    0.59730    0.32230    1.000
    C62      C        0.41900    0.55860    0.29530    1.000
    C63      C        0.98850    0.75600    0.41800    1.000
    C64      C        0.92390    0.70270    0.43973    1.000
    C65      C        0.98480    0.62290    0.44720    1.000
    C66      C        0.58270    0.27170    0.43580    1.000
    C67      C        0.65820    0.35000    0.44740    1.000
    C68      C        0.64130    0.36940    0.47610    1.000
    C69      C        0.57150    0.21340    0.33080    1.000
    C70      C        0.64600    0.28580    0.31580    1.000
    C71      C        0.62110    0.29210    0.28690    1.000
    C72      C        0.64830    0.01120    0.30480    1.000
    C73      C        0.72940    0.04280    0.28210    1.000
    C74      C        0.69590    0.02320    0.25670    1.000
    C75      C        0.86480    0.09220    0.24190    1.000
    C76      C        0.90130    0.11060    0.26690    1.000
    C77      C        0.93980    0.90160    0.29250    1.000
    C78      C        0.84400    0.85290    0.27650    1.000
    C79      C        0.84780    0.84900    0.24960    1.000
    C80      C        0.66780    0.77160    0.24890    1.000
    C81      C        0.66170    0.77440    0.27510    1.000
    C82      C        0.59340    0.04390    0.45220    1.000
    C83      C        0.68080    0.08630    0.47180    1.000
    C84      C        0.65100    0.08100    0.49760    1.000
    C85      C        0.83090    0.14860    0.50860    1.000
    C86      C        0.86130    0.15700    0.48180    1.000
    C87      C        0.90080    0.94360    0.45670    1.000
    C88      C        0.79870    0.89880    0.47260    1.000
    C89      C        0.80210    0.90030    0.49900    1.000
    C90      C        0.62100    0.82110    0.50010    1.000
    C91      C        0.61830    0.82060    0.47370    1.000
    C92      C        0.99890    0.41320    0.37490    1.000
    C93      C        0.87830    0.44990    0.37560    1.000
    C94      C        0.86600    0.53820    0.37540    1.000
    C95      C        0.66780    0.50750    0.37810    1.000
    C96      C        0.68110    0.41930    0.37850    1.000
    C97      C        0.68800    0.89720    0.15250    1.000
    C98      C        0.77500    0.93750    0.16070    1.000
    C99      C        0.76290    0.02800    0.08970    1.000
    C100     C        0.84810    0.06270    0.10040    1.000
    C101     C        0.10230    0.88750    0.12460    1.000
    C102     C        0.16780    0.83100    0.12860    1.000
    C103     C        0.38350    0.12130    0.11870    1.000
    C104     C        0.44390    0.07530    0.13050    1.000
    C105     C        0.89030    0.75710    0.08660    1.000
    C106     C        0.94480    0.67150    0.08720    1.000
    C107     C        0.87620    0.60030    0.07140    1.000
    C108     C        0.90730    0.69040    0.17630    1.000
    C109     C        0.94060    0.59730    0.17770    1.000
    C110     C        0.91900    0.55860    0.20470    1.000
    C111     C        0.48850    0.75600    0.08200    1.000
    C112     C        0.42390    0.70270    0.06027    1.000
    C113     C        0.48480    0.62290    0.05280    1.000
    C114     C        0.08270    0.27170    0.06420    1.000
    C115     C        0.15820    0.35000    0.05260    1.000
    C116     C        0.14130    0.36940    0.02390    1.000
    C117     C        0.07150    0.21340    0.16920    1.000
    C118     C        0.14600    0.28580    0.18420    1.000
    C119     C        0.12110    0.29210    0.21310    1.000
    C120     C        0.14830    0.01120    0.19520    1.000
    C121     C        0.22940    0.04280    0.21790    1.000
    C122     C        0.19590    0.02320    0.24330    1.000
    C123     C        0.36480    0.09220    0.25810    1.000
    C124     C        0.40130    0.11060    0.23310    1.000
    C125     C        0.43980    0.90160    0.20750    1.000
    C126     C        0.34400    0.85290    0.22350    1.000
    C127     C        0.34780    0.84900    0.25040    1.000
    C128     C        0.16780    0.77160    0.25110    1.000
    C129     C        0.16170    0.77440    0.22490    1.000
    C130     C        0.09340    0.04390    0.04780    1.000
    C131     C        0.18080    0.08630    0.02820    1.000
    C132     C        0.15100    0.08100    0.00240    1.000
    C133     C        0.33090    0.14860    0.99140    1.000
    C134     C        0.36130    0.15700    0.01820    1.000
    C135     C        0.40080    0.94360    0.04330    1.000
    C136     C        0.29870    0.89880    0.02740    1.000
    C137     C        0.30210    0.90030    0.00100    1.000
    C138     C        0.12100    0.82110    0.99990    1.000
    C139     C        0.11830    0.82060    0.02630    1.000
    C140     C        0.49890    0.41320    0.12510    1.000
    C141     C        0.37830    0.44990    0.12440    1.000
    C142     C        0.36600    0.53820    0.12460    1.000
    C143     C        0.16780    0.50750    0.12190    1.000
    C144     C        0.18110    0.41930    0.12150    1.000
    C145     C        0.81200    0.10280    0.65250    1.000
    C146     C        0.72500    0.06250    0.66070    1.000
    C147     C        0.73710    0.97200    0.58970    1.000
    C148     C        0.65190    0.93730    0.60040    1.000
    C149     C        0.39770    0.11250    0.62460    1.000
    C150     C        0.33220    0.16900    0.62860    1.000
    C151     C        0.11650    0.87870    0.61870    1.000
    C152     C        0.05610    0.92470    0.63050    1.000
    C153     C        0.60970    0.24290    0.58660    1.000
    C154     C        0.55520    0.32850    0.58720    1.000
    C155     C        0.62380    0.39970    0.57140    1.000
    C156     C        0.59270    0.30960    0.67630    1.000
    C157     C        0.55940    0.40270    0.67770    1.000
    C158     C        0.58100    0.44140    0.70470    1.000
    C159     C        0.01150    0.24400    0.58200    1.000
    C160     C        0.07610    0.29730    0.56027    1.000
    C161     C        0.01520    0.37710    0.55280    1.000
    C162     C        0.41730    0.72830    0.56420    1.000
    C163     C        0.34180    0.65000    0.55260    1.000
    C164     C        0.35870    0.63060    0.52390    1.000
    C165     C        0.42850    0.78660    0.66920    1.000
    C166     C        0.35400    0.71420    0.68420    1.000
    C167     C        0.37890    0.70790    0.71310    1.000
    C168     C        0.35170    0.98880    0.69520    1.000
    C169     C        0.27060    0.95720    0.71790    1.000
    C170     C        0.30410    0.97680    0.74330    1.000
    C171     C        0.13520    0.90780    0.75810    1.000
    C172     C        0.09870    0.88940    0.73310    1.000
    C173     C        0.06020    0.09840    0.70750    1.000
    C174     C        0.15600    0.14710    0.72350    1.000
    C175     C        0.15220    0.15100    0.75040    1.000
    C176     C        0.33220    0.22840    0.75110    1.000
    C177     C        0.33830    0.22560    0.72490    1.000
    C178     C        0.40660    0.95610    0.54780    1.000
    C179     C        0.31920    0.91370    0.52820    1.000
    C180     C        0.34900    0.91900    0.50240    1.000
    C181     C        0.16910    0.85140    0.49140    1.000
    C182     C        0.13870    0.84300    0.51820    1.000
    C183     C        0.09920    0.05640    0.54330    1.000
    C184     C        0.20130    0.10120    0.52740    1.000
    C185     C        0.19790    0.09970    0.50100    1.000
    C186     C        0.37900    0.17890    0.49990    1.000
    C187     C        0.38170    0.17940    0.52630    1.000
    C188     C        0.00110    0.58680    0.62510    1.000
    C189     C        0.12170    0.55010    0.62440    1.000
    C190     C        0.13400    0.46180    0.62460    1.000
    C191     C        0.33220    0.49250    0.62190    1.000
    C192     C        0.31890    0.58070    0.62150    1.000
    N1       N        0.66870    0.91450    0.78730    1.000
    N2       N        0.73680    0.95140    0.73640    1.000
    N3       N        0.75140    0.18470    0.78920    1.000
    N4       N        0.73800    0.18880    0.73500    1.000
    N5       N        0.71530    0.87500    0.96400    1.000
    N6       N        0.77340    0.89060    0.01620    1.000
    N7       N        0.79360    0.14070    0.95970    1.000
    N8       N        0.78840    0.13740    0.01360    1.000
    N9       N        0.71350    0.60920    0.87750    1.000
    N10      N        0.74130    0.43350    0.87640    1.000
    N11      N        0.40460    0.53030    0.87260    1.000
    N12      N        0.83130    0.08550    0.28730    1.000
    N13      N        0.76320    0.04860    0.23640    1.000
    N14      N        0.74860    0.81530    0.28920    1.000
    N15      N        0.76200    0.81120    0.23500    1.000
    N16      N        0.78470    0.12500    0.46400    1.000
    N17      N        0.72660    0.10940    0.51620    1.000
    N18      N        0.70640    0.85930    0.45970    1.000
    N19      N        0.71160    0.86260    0.51360    1.000
    N20      N        0.78650    0.39080    0.37750    1.000
    N21      N        0.75870    0.56650    0.37640    1.000
    N22      N        0.09540    0.46970    0.37260    1.000
    N23      N        0.33130    0.08550    0.21270    1.000
    N24      N        0.26320    0.04860    0.26360    1.000
    N25      N        0.24860    0.81530    0.21080    1.000
    N26      N        0.26200    0.81120    0.26500    1.000
    N27      N        0.28470    0.12500    0.03600    1.000
    N28      N        0.22660    0.10940    0.98380    1.000
    N29      N        0.20640    0.85930    0.04030    1.000
    N30      N        0.21160    0.86260    0.98640    1.000
    N31      N        0.28650    0.39080    0.12250    1.000
    N32      N        0.25870    0.56650    0.12360    1.000
    N33      N        0.59540    0.46970    0.12740    1.000
    N34      N        0.16870    0.91450    0.71270    1.000
    N35      N        0.23680    0.95140    0.76360    1.000
    N36      N        0.25140    0.18470    0.71080    1.000
    N37      N        0.23800    0.18880    0.76500    1.000
    N38      N        0.21530    0.87500    0.53600    1.000
    N39      N        0.27340    0.89060    0.48380    1.000
    N40      N        0.29360    0.14070    0.54030    1.000
    N41      N        0.28840    0.13740    0.48640    1.000
    N42      N        0.21350    0.60920    0.62250    1.000
    N43      N        0.24130    0.43350    0.62360    1.000
    N44      N        0.90460    0.53030    0.62740    1.000
    O1       O        0.19010    0.23520    0.89650    1.000
    O2       O        0.07260    0.18970    0.92900    1.000
    O3       O        0.01290    0.25010    0.82220    1.000
    O4       O        0.20320    0.30670    0.82620    1.000
    O5       O        0.42410    0.19400    0.92570    1.000
    O6       O        0.55350    0.25450    0.89580    1.000
    O7       O        0.00500    0.76130    0.94880    1.000
    O8       O        0.88780    0.74880    0.91350    1.000
    O9       O        0.89750    0.78360    0.85440    1.000
    O10      O        0.01400    0.83170    0.82140    1.000
    O11      O        0.82450    0.96030    0.82640    1.000
    O12      O        0.94060    0.04070    0.79910    1.000
    O13      O        0.58430    0.08720    0.81654    1.000
    O14      O        0.46960    0.07050    0.78131    1.000
    O15      O        0.87170    0.96010    0.92842    1.000
    O16      O        0.00660    0.98370    0.96003    1.000
    O17      O        0.61300    0.05190    0.93235    1.000
    O18      O        0.51070    0.02600    0.96797    1.000
    O19      O        0.49670    0.66420    0.87660    1.000
    O20      O        0.30990    0.76480    0.39650    1.000
    O21      O        0.42740    0.81030    0.42900    1.000
    O22      O        0.48710    0.74990    0.32220    1.000
    O23      O        0.29680    0.69330    0.32620    1.000
    O24      O        0.07590    0.80600    0.42570    1.000
    O25      O        0.94650    0.74550    0.39580    1.000
    O26      O        0.49500    0.23870    0.44880    1.000
    O27      O        0.61220    0.25120    0.41350    1.000
    O28      O        0.60250    0.21640    0.35440    1.000
    O29      O        0.48600    0.16830    0.32140    1.000
    O30      O        0.67550    0.03970    0.32640    1.000
    O31      O        0.55940    0.95930    0.29910    1.000
    O32      O        0.91570    0.91280    0.31654    1.000
    O33      O        0.03040    0.92950    0.28131    1.000
    O34      O        0.62830    0.03990    0.42842    1.000
    O35      O        0.49340    0.01630    0.46003    1.000
    O36      O        0.88700    0.94810    0.43235    1.000
    O37      O        0.98930    0.97400    0.46797    1.000
    O38      O        0.00330    0.33580    0.37660    1.000
    O39      O        0.80990    0.76480    0.10350    1.000
    O40      O        0.92740    0.81030    0.07100    1.000
    O41      O        0.98710    0.74990    0.17780    1.000
    O42      O        0.79680    0.69330    0.17380    1.000
    O43      O        0.57590    0.80600    0.07430    1.000
    O44      O        0.44650    0.74550    0.10420    1.000
    O45      O        0.99500    0.23870    0.05120    1.000
    O46      O        0.11220    0.25120    0.08650    1.000
    O47      O        0.10250    0.21640    0.14560    1.000
    O48      O        0.98600    0.16830    0.17860    1.000
    O49      O        0.17550    0.03970    0.17360    1.000
    O50      O        0.05940    0.95930    0.20090    1.000
    O51      O        0.41570    0.91280    0.18346    1.000
    O52      O        0.53040    0.92950    0.21869    1.000
    O53      O        0.12830    0.03990    0.07158    1.000
    O54      O        0.99340    0.01630    0.03997    1.000
    O55      O        0.38700    0.94810    0.06765    1.000
    O56      O        0.48930    0.97400    0.03203    1.000
    O57      O        0.50330    0.33580    0.12340    1.000
    O58      O        0.69010    0.23520    0.60350    1.000
    O59      O        0.57260    0.18970    0.57100    1.000
    O60      O        0.51290    0.25010    0.67780    1.000
    O61      O        0.70320    0.30670    0.67380    1.000
    O62      O        0.92410    0.19400    0.57430    1.000
    O63      O        0.05350    0.25450    0.60420    1.000
    O64      O        0.50500    0.76130    0.55120    1.000
    O65      O        0.38780    0.74880    0.58650    1.000
    O66      O        0.39750    0.78360    0.64560    1.000
    O67      O        0.51400    0.83170    0.67860    1.000
    O68      O        0.32450    0.96030    0.67360    1.000
    O69      O        0.44060    0.04070    0.70090    1.000
    O70      O        0.08430    0.08720    0.68346    1.000
    O71      O        0.96960    0.07050    0.71869    1.000
    O72      O        0.37170    0.96010    0.57158    1.000
    O73      O        0.50660    0.98370    0.53997    1.000
    O74      O        0.11300    0.05190    0.56765    1.000
    O75      O        0.01070    0.02600    0.53203    1.000
    O76      O        0.99670    0.66420    0.62340    1.000
    F1       F        0.04970    0.35870    0.88880    1.000
    F2       F        0.94450    0.32010    0.92190    1.000
    F3       F        0.07050    0.47130    0.92780    1.000
    F4       F        0.13200    0.37540    0.95300    1.000
    F5       F        0.23110    0.41500    0.91860    1.000
    F6       F        0.94600    0.40530    0.82810    1.000
    F7       F        0.12330    0.45760    0.83830    1.000
    F8       F        0.19210    0.44440    0.78810    1.000
    F9       F        0.05000    0.52070    0.79310    1.000
    F10      F        0.01600    0.39210    0.77870    1.000
    F11      F        0.68600    0.32570    0.93298    1.000
    F12      F        0.58300    0.25160    0.96161    1.000
    F13      F        0.49130    0.42330    0.92650    1.000
    F14      F        0.41180    0.35590    0.95840    1.000
    F15      F        0.57850    0.42930    0.96340    1.000
    F16      F        0.86000    0.57410    0.93580    1.000
    F17      F        0.72850    0.66230    0.94430    1.000
    F18      F        0.78040    0.56420    0.98230    1.000
    F19      F        0.83770    0.70510    0.98710    1.000
    F20      F        0.96790    0.61020    0.97980    1.000
    F21      F        0.87000    0.63210    0.82380    1.000
    F22      F        0.73970    0.72700    0.81800    1.000
    F23      F        0.80160    0.64550    0.77750    1.000
    F24      F        0.85920    0.78990    0.78290    1.000
    F25      F        0.98950    0.68890    0.78420    1.000
    F26      F        0.45030    0.64130    0.38880    1.000
    F27      F        0.55550    0.67990    0.42190    1.000
    F28      F        0.42950    0.52870    0.42780    1.000
    F29      F        0.36800    0.62460    0.45300    1.000
    F30      F        0.26890    0.58500    0.41860    1.000
    F31      F        0.55400    0.59470    0.32810    1.000
    F32      F        0.37670    0.54240    0.33830    1.000
    F33      F        0.30790    0.55560    0.28810    1.000
    F34      F        0.45000    0.47930    0.29310    1.000
    F35      F        0.48400    0.60790    0.27870    1.000
    F36      F        0.81400    0.67430    0.43298    1.000
    F37      F        0.91700    0.74840    0.46161    1.000
    F38      F        0.00870    0.57670    0.42650    1.000
    F39      F        0.08820    0.64410    0.45840    1.000
    F40      F        0.92150    0.57070    0.46340    1.000
    F41      F        0.64000    0.42590    0.43580    1.000
    F42      F        0.77150    0.33770    0.44430    1.000
    F43      F        0.71960    0.43580    0.48230    1.000
    F44      F        0.66230    0.29490    0.48710    1.000
    F45      F        0.53210    0.38980    0.47980    1.000
    F46      F        0.63000    0.36790    0.32380    1.000
    F47      F        0.76030    0.27300    0.31800    1.000
    F48      F        0.69840    0.35450    0.27750    1.000
    F49      F        0.64080    0.21010    0.28290    1.000
    F50      F        0.51050    0.31110    0.28420    1.000
    F51      F        0.95030    0.64130    0.11120    1.000
    F52      F        0.05550    0.67990    0.07810    1.000
    F53      F        0.92950    0.52870    0.07220    1.000
    F54      F        0.86800    0.62460    0.04700    1.000
    F55      F        0.76890    0.58500    0.08140    1.000
    F56      F        0.05400    0.59470    0.17190    1.000
    F57      F        0.87670    0.54240    0.16170    1.000
    F58      F        0.80790    0.55560    0.21190    1.000
    F59      F        0.95000    0.47930    0.20690    1.000
    F60      F        0.98400    0.60790    0.22130    1.000
    F61      F        0.31400    0.67430    0.06702    1.000
    F62      F        0.41700    0.74840    0.03839    1.000
    F63      F        0.50870    0.57670    0.07350    1.000
    F64      F        0.58820    0.64410    0.04160    1.000
    F65      F        0.42150    0.57070    0.03660    1.000
    F66      F        0.14000    0.42590    0.06420    1.000
    F67      F        0.27150    0.33770    0.05570    1.000
    F68      F        0.21960    0.43580    0.01770    1.000
    F69      F        0.16230    0.29490    0.01290    1.000
    F70      F        0.03210    0.38980    0.02020    1.000
    F71      F        0.13000    0.36790    0.17620    1.000
    F72      F        0.26030    0.27300    0.18200    1.000
    F73      F        0.19840    0.35450    0.22250    1.000
    F74      F        0.14080    0.21010    0.21710    1.000
    F75      F        0.01050    0.31110    0.21580    1.000
    F76      F        0.54970    0.35870    0.61120    1.000
    F77      F        0.44450    0.32010    0.57810    1.000
    F78      F        0.57050    0.47130    0.57220    1.000
    F79      F        0.63200    0.37540    0.54700    1.000
    F80      F        0.73110    0.41500    0.58140    1.000
    F81      F        0.44600    0.40530    0.67190    1.000
    F82      F        0.62330    0.45760    0.66170    1.000
    F83      F        0.69210    0.44440    0.71190    1.000
    F84      F        0.55000    0.52070    0.70690    1.000
    F85      F        0.51600    0.39210    0.72130    1.000
    F86      F        0.18600    0.32570    0.56702    1.000
    F87      F        0.08300    0.25160    0.53839    1.000
    F88      F        0.99130    0.42330    0.57350    1.000
    F89      F        0.91180    0.35590    0.54160    1.000
    F90      F        0.07850    0.42930    0.53660    1.000
    F91      F        0.36000    0.57410    0.56420    1.000
    F92      F        0.22850    0.66230    0.55570    1.000
    F93      F        0.28040    0.56420    0.51770    1.000
    F94      F        0.33770    0.70510    0.51290    1.000
    F95      F        0.46790    0.61020    0.52020    1.000
    F96      F        0.37000    0.63210    0.67620    1.000
    F97      F        0.23970    0.72700    0.68200    1.000
    F98      F        0.30160    0.64550    0.72250    1.000
    F99      F        0.35920    0.78990    0.71710    1.000
    F100     F        0.48950    0.68890    0.71580    1.000
