# CIF file generated by openbabel 3.1.0, see https://openbabel.org
data_I
_chemical_name_common 'HIHGEM_clean_b'
_cell_length_a 18.774
_cell_length_b 29.704
_cell_length_c 24.89
_cell_angle_alpha 90
_cell_angle_beta 90
_cell_angle_gamma 90
_space_group_name_H-M_alt 'C c c m'
_space_group_name_Hall '-C 2 2c'
loop_
    _symmetry_equiv_pos_as_xyz
    x,y,z
    -x,-y,z
    -x,y,1/2-z
    x,-y,1/2-z
    -x,-y,-z
    x,y,-z
    x,-y,1/2+z
    -x,y,1/2+z
    1/2+x,1/2+y,z
    1/2-x,1/2-y,z
    1/2-x,1/2+y,1/2-z
    1/2+x,1/2-y,1/2-z
    1/2-x,1/2-y,-z
    1/2+x,1/2+y,-z
    1/2+x,1/2-y,1/2+z
    1/2-x,1/2+y,1/2+z
loop_
    _atom_site_label
    _atom_site_type_symbol
    _atom_site_fract_x
    _atom_site_fract_y
    _atom_site_fract_z
    _atom_site_occupancy
    C1       C        0.16100    0.10800    0.07780    1.000
    O2       O        0.21310    0.08885    0.05702    1.000
    C3       C        0.12540    0.08466    0.12372    1.000
    C4       C        0.05450    0.03609    0.20501    1.000
    C5       C        0.06040    0.09867    0.14190    1.000
    H6       H        0.03940    0.12430    0.12730    1.000
    O7       O        0.13480    0.14508    0.06341    1.000
    C8       C        0.12090    0.02351    0.18640    1.000
    H9       H        0.14250    0.99800    0.20080    1.000
    C10      C        0.15670    0.04788    0.14660    1.000
    H11      H        0.20190    0.03900    0.13560    1.000
    C12      C        0.02550    0.07473    0.18220    1.000
    H13      H        0.98140    0.08490    0.19430    1.000
    C14      C        0.17790    0.28859    0.92500    1.000
    C15      C        0.13620    0.30928    0.87902    1.000
    C16      C        0.05820    0.34975    0.79563    1.000
    C17      C        0.07870    0.28799    0.85640    1.000
    H18      H        0.06560    0.25960    0.86860    1.000
    C19      C        0.03950    0.30825    0.81540    1.000
    H20      H        0.00000    0.29350    0.80130    1.000
    C21      C        0.11510    0.37062    0.81910    1.000
    H22      H        0.12780    0.39920    0.80700    1.000
    C23      C        0.15480    0.35125    0.86000    1.000
    H24      H        0.19360    0.36650    0.87450    1.000
    O25      O        0.15740    0.25073    0.94025    1.000
    O26      O        0.22780    0.31093    0.94501    1.000
    C27      C        0.05430    0.41940    0.70380    1.000
    C28      C        0.16940    0.49520    0.58340    1.000
    C29      C        0.12890    0.46960    0.62580    1.000
    C30      C        0.05460    0.40130    0.64930    1.000
    C31      C        0.08990    0.42660    0.61100    1.000
    C32      C        0.12900    0.47630    0.67810    1.000
    C33      C        0.09260    0.45260    0.71650    1.000
    O34      O        0.16640    0.47980    0.53770    1.000
    O35      O        0.13620    0.53020    0.55860    1.000
    H36      H        0.47328    0.86805    0.14031    1.000
    H37      H        0.41072    0.91453    0.06753    1.000
    H38      H        0.33774    0.00467    0.19605    1.000
    H39      H        0.40276    0.96321    0.26038    1.000
    Er40     Er       0.17687    0.19461    0.00000    1.000
    Er41     Er       0.26829    0.04170    0.00000    1.000
    Si42     Si       0.00000    0.00000    0.25000    1.000
    Si43     Si       0.00000    0.38344    0.75000    1.000
