# CIF file generated by openbabel 3.1.0, see https://openbabel.org
data_I
_chemical_name_common 'image0'
_cell_length_a 15.6702
_cell_length_b 15.6702
_cell_length_c 15.6702
_cell_angle_alpha 90
_cell_angle_beta 90
_cell_angle_gamma 90
_space_group_name_H-M_alt 'P 1'
_space_group_name_Hall 'P 1'
loop_
    _symmetry_equiv_pos_as_xyz
    x,y,z
loop_
    _atom_site_label
    _atom_site_type_symbol
    _atom_site_fract_x
    _atom_site_fract_y
    _atom_site_fract_z
    _atom_site_occupancy
    N1       N        0.41220    0.82100    0.19450    1.000
    C1       C        0.39150    0.90200    0.21760    1.000
    N2       N        0.08780    0.67900    0.19450    1.000
    C2       C        0.10850    0.59800    0.21760    1.000
    N3       N        0.08780    0.82100    0.30550    1.000
    C3       C        0.10850    0.90200    0.28240    1.000
    N4       N        0.41220    0.67900    0.30550    1.000
    C4       C        0.39150    0.59800    0.28240    1.000
    N5       N        0.19450    0.41220    0.82100    1.000
    C5       C        0.21760    0.39150    0.90200    1.000
    N6       N        0.19450    0.08780    0.67900    1.000
    C6       C        0.21760    0.10850    0.59800    1.000
    N7       N        0.30550    0.08780    0.82100    1.000
    C7       C        0.28240    0.10850    0.90200    1.000
    N8       N        0.30550    0.41220    0.67900    1.000
    C8       C        0.28240    0.39150    0.59800    1.000
    N9       N        0.82100    0.19450    0.41220    1.000
    C9       C        0.90200    0.21760    0.39150    1.000
    N10      N        0.67900    0.19450    0.08780    1.000
    C10      C        0.59800    0.21760    0.10850    1.000
    N11      N        0.82100    0.30550    0.08780    1.000
    C11      C        0.90200    0.28240    0.10850    1.000
    N12      N        0.67900    0.30550    0.41220    1.000
    C12      C        0.59800    0.28240    0.39150    1.000
    N13      N        0.32100    0.91220    0.80550    1.000
    C13      C        0.40200    0.89150    0.78240    1.000
    N14      N        0.17900    0.58780    0.80550    1.000
    C14      C        0.09800    0.60850    0.78240    1.000
    N15      N        0.32100    0.58780    0.69450    1.000
    C15      C        0.40200    0.60850    0.71760    1.000
    N16      N        0.17900    0.91220    0.69450    1.000
    C16      C        0.09800    0.89150    0.71760    1.000
    N17      N        0.91220    0.69450    0.17900    1.000
    C17      C        0.89150    0.71760    0.09800    1.000
    N18      N        0.58780    0.69450    0.32100    1.000
    C18      C        0.60850    0.71760    0.40200    1.000
    N19      N        0.58780    0.80550    0.17900    1.000
    C19      C        0.60850    0.78240    0.09800    1.000
    N20      N        0.91220    0.80550    0.32100    1.000
    C20      C        0.89150    0.78240    0.40200    1.000
    N21      N        0.69450    0.32100    0.58780    1.000
    C21      C        0.71760    0.40200    0.60850    1.000
    N22      N        0.69450    0.17900    0.91220    1.000
    C22      C        0.71760    0.09800    0.89150    1.000
    N23      N        0.80550    0.32100    0.91220    1.000
    C23      C        0.78240    0.40200    0.89150    1.000
    N24      N        0.80550    0.17900    0.58780    1.000
    C24      C        0.78240    0.09800    0.60850    1.000
    N25      N        0.58780    0.17900    0.80550    1.000
    C25      C        0.60850    0.09800    0.78240    1.000
    N26      N        0.91220    0.32100    0.80550    1.000
    C26      C        0.89150    0.40200    0.78240    1.000
    N27      N        0.91220    0.17900    0.69450    1.000
    C27      C        0.89150    0.09800    0.71760    1.000
    N28      N        0.58780    0.32100    0.69450    1.000
    C28      C        0.60850    0.40200    0.71760    1.000
    N29      N        0.80550    0.58780    0.17900    1.000
    C29      C        0.78240    0.60850    0.09800    1.000
    N30      N        0.80550    0.91220    0.32100    1.000
    C30      C        0.78240    0.89150    0.40200    1.000
    N31      N        0.69450    0.91220    0.17900    1.000
    C31      C        0.71760    0.89150    0.09800    1.000
    N32      N        0.69450    0.58780    0.32100    1.000
    C32      C        0.71760    0.60850    0.40200    1.000
    N33      N        0.17900    0.80550    0.58780    1.000
    C33      C        0.09800    0.78240    0.60850    1.000
    N34      N        0.32100    0.80550    0.91220    1.000
    C34      C        0.40200    0.78240    0.89150    1.000
    N35      N        0.17900    0.69450    0.91220    1.000
    C35      C        0.09800    0.71760    0.89150    1.000
    N36      N        0.32100    0.69450    0.58780    1.000
    C36      C        0.40200    0.71760    0.60850    1.000
    N37      N        0.67900    0.08780    0.19450    1.000
    C37      C        0.59800    0.10850    0.21760    1.000
    N38      N        0.82100    0.41220    0.19450    1.000
    C38      C        0.90200    0.39150    0.21760    1.000
    N39      N        0.67900    0.41220    0.30550    1.000
    C39      C        0.59800    0.39150    0.28240    1.000
    N40      N        0.82100    0.08780    0.30550    1.000
    C40      C        0.90200    0.10850    0.28240    1.000
    N41      N        0.08780    0.30550    0.82100    1.000
    C41      C        0.10850    0.28240    0.90200    1.000
    N42      N        0.41220    0.30550    0.67900    1.000
    C42      C        0.39150    0.28240    0.59800    1.000
    N43      N        0.41220    0.19450    0.82100    1.000
    C43      C        0.39150    0.21760    0.90200    1.000
    N44      N        0.08780    0.19450    0.67900    1.000
    C44      C        0.10850    0.21760    0.59800    1.000
    N45      N        0.30550    0.67900    0.41220    1.000
    C45      C        0.28240    0.59800    0.39150    1.000
    N46      N        0.30550    0.82100    0.08780    1.000
    C46      C        0.28240    0.90200    0.10850    1.000
    N47      N        0.19450    0.67900    0.08780    1.000
    C47      C        0.21760    0.59800    0.10850    1.000
    N48      N        0.19450    0.82100    0.41220    1.000
    C48      C        0.21760    0.90200    0.39150    1.000
    Cu1      Cu       0.50000    0.75000    0.25000    1.000
    Cu2      Cu       0.00000    0.75000    0.25000    1.000
    Cu3      Cu       0.25000    0.50000    0.75000    1.000
    Cu4      Cu       0.25000    0.00000    0.75000    1.000
    Cu5      Cu       0.75000    0.25000    0.50000    1.000
    Cu6      Cu       0.75000    0.25000    0.00000    1.000
    Cu7      Cu       0.50000    0.25000    0.75000    1.000
    Cu8      Cu       0.00000    0.25000    0.75000    1.000
    Cu9      Cu       0.75000    0.50000    0.25000    1.000
    Cu10     Cu       0.75000    0.00000    0.25000    1.000
    Cu11     Cu       0.25000    0.75000    0.50000    1.000
    Cu12     Cu       0.25000    0.75000    0.00000    1.000
    C49      C        0.37390    0.77830    0.12610    1.000
    C50      C        0.32700    0.94710    0.17300    1.000
    O1       O        0.39520    0.70790    0.10480    1.000
    C51      C        0.12610    0.72170    0.12610    1.000
    C52      C        0.17300    0.55290    0.17300    1.000
    O2       O        0.10480    0.79210    0.10480    1.000
    C53      C        0.12610    0.77830    0.37390    1.000
    C54      C        0.17300    0.94710    0.32700    1.000
    O3       O        0.10480    0.70790    0.39520    1.000
    C55      C        0.37390    0.72170    0.37390    1.000
    C56      C        0.32700    0.55290    0.32700    1.000
    O4       O        0.39520    0.79210    0.39520    1.000
    C57      C        0.12610    0.37390    0.77830    1.000
    C58      C        0.17300    0.32700    0.94710    1.000
    O5       O        0.10480    0.39520    0.70790    1.000
    C59      C        0.12610    0.12610    0.72170    1.000
    C60      C        0.17300    0.17300    0.55290    1.000
    O6       O        0.10480    0.10480    0.79210    1.000
    C61      C        0.37390    0.12610    0.77830    1.000
    C62      C        0.32700    0.17300    0.94710    1.000
    O7       O        0.39520    0.10480    0.70790    1.000
    C63      C        0.37390    0.37390    0.72170    1.000
    C64      C        0.32700    0.32700    0.55290    1.000
    O8       O        0.39520    0.39520    0.79210    1.000
    C65      C        0.77830    0.12610    0.37390    1.000
    C66      C        0.94710    0.17300    0.32700    1.000
    O9       O        0.70790    0.10480    0.39520    1.000
    C67      C        0.72170    0.12610    0.12610    1.000
    C68      C        0.55290    0.17300    0.17300    1.000
    O10      O        0.79210    0.10480    0.10480    1.000
    C69      C        0.77830    0.37390    0.12610    1.000
    C70      C        0.94710    0.32700    0.17300    1.000
    O11      O        0.70790    0.39520    0.10480    1.000
    C71      C        0.72170    0.37390    0.37390    1.000
    C72      C        0.55290    0.32700    0.32700    1.000
    O12      O        0.79210    0.39520    0.39520    1.000
    C73      C        0.27830    0.87390    0.87390    1.000
    C74      C        0.44710    0.82700    0.82700    1.000
    O13      O        0.20790    0.89520    0.89520    1.000
    C75      C        0.22170    0.62610    0.87390    1.000
    C76      C        0.05290    0.67300    0.82700    1.000
    O14      O        0.29210    0.60480    0.89520    1.000
    C77      C        0.27830    0.62610    0.62610    1.000
    C78      C        0.44710    0.67300    0.67300    1.000
    O15      O        0.20790    0.60480    0.60480    1.000
    C79      C        0.22170    0.87390    0.62610    1.000
    C80      C        0.05290    0.82700    0.67300    1.000
    O16      O        0.29210    0.89520    0.60480    1.000
    C81      C        0.87390    0.62610    0.22170    1.000
    C82      C        0.82700    0.67300    0.05290    1.000
    O17      O        0.89520    0.60480    0.29210    1.000
    C83      C        0.62610    0.62610    0.27830    1.000
    C84      C        0.67300    0.67300    0.44710    1.000
    O18      O        0.60480    0.60480    0.20790    1.000
    C85      C        0.62610    0.87390    0.22170    1.000
    C86      C        0.67300    0.82700    0.05290    1.000
    O19      O        0.60480    0.89520    0.29210    1.000
    C87      C        0.87390    0.87390    0.27830    1.000
    C88      C        0.82700    0.82700    0.44710    1.000
    O20      O        0.89520    0.89520    0.20790    1.000
    C89      C        0.62610    0.27830    0.62610    1.000
    C90      C        0.67300    0.44710    0.67300    1.000
    O21      O        0.60480    0.20790    0.60480    1.000
    C91      C        0.62610    0.22170    0.87390    1.000
    C92      C        0.67300    0.05290    0.82700    1.000
    O22      O        0.60480    0.29210    0.89520    1.000
    C93      C        0.87390    0.27830    0.87390    1.000
    C94      C        0.82700    0.44710    0.82700    1.000
    O23      O        0.89520    0.20790    0.89520    1.000
    C95      C        0.87390    0.22170    0.62610    1.000
    C96      C        0.82700    0.05290    0.67300    1.000
    O24      O        0.89520    0.29210    0.60480    1.000
