# CIF file generated by openbabel 3.1.0, see https://openbabel.org
data_I
_chemical_name_common 'image0'
_cell_length_a 20.1619
_cell_length_b 20.1619
_cell_length_c 20.1619
_cell_angle_alpha 90
_cell_angle_beta 90
_cell_angle_gamma 90
_space_group_name_H-M_alt 'P 1'
_space_group_name_Hall 'P 1'
loop_
    _symmetry_equiv_pos_as_xyz
    x,y,z
loop_
    _atom_site_label
    _atom_site_type_symbol
    _atom_site_fract_x
    _atom_site_fract_y
    _atom_site_fract_z
    _atom_site_occupancy
    N1       N        0.27300    0.73740    0.10780    1.000
    Zn1      Zn       0.19008    0.80983    0.19582    1.000
    N2       N        0.22307    0.77977    0.10224    1.000
    C1       C        0.29290    0.72150    0.04720    1.000
    N3       N        0.20770    0.90080    0.21970    1.000
    N4       N        0.09860    0.79000    0.21940    1.000
    C2       C        0.21210    0.79000    0.03830    1.000
    H1       H        0.32800    0.69190    0.03640    1.000
    C3       C        0.25520    0.75390    0.00420    1.000
    C4       C        0.21000    0.95970    0.21340    1.000
    C5       C        0.29080    0.95850    0.28930    1.000
    H2       H        0.17900    0.81820    0.02000    1.000
    C6       C        0.25770    0.73590    0.93270    1.000
    H3       H        0.18640    0.98000    0.17800    1.000
    C7       C        0.24970    0.00270    0.26030    1.000
    H4       H        0.32990    0.97450    0.31010    1.000
    O1       O        0.25710    0.70360    0.89110    1.000
    C8       C        0.25060    0.08120    0.26420    1.000
    Zn2      Zn       0.30404    0.69229    0.80918    1.000
    O2       O        0.21795    0.10533    0.22000    1.000
    O3       O        0.29140    0.11150    0.29200    1.000
    N5       N        0.22700    0.26260    0.60780    1.000
    Zn3      Zn       0.30992    0.19017    0.69582    1.000
    N6       N        0.27693    0.22023    0.60224    1.000
    C9       C        0.20710    0.27850    0.54720    1.000
    N7       N        0.29230    0.09920    0.71970    1.000
    N8       N        0.40140    0.21000    0.71940    1.000
    C10      C        0.28790    0.21000    0.53830    1.000
    H5       H        0.17200    0.30810    0.53640    1.000
    C11      C        0.24480    0.24610    0.50420    1.000
    C12      C        0.29000    0.04030    0.71340    1.000
    C13      C        0.20920    0.04150    0.78930    1.000
    H6       H        0.32100    0.18180    0.52000    1.000
    C14      C        0.24230    0.26410    0.43270    1.000
    H7       H        0.31360    0.02000    0.67800    1.000
    C15      C        0.25030    0.99730    0.76030    1.000
    H8       H        0.17010    0.02550    0.81010    1.000
    O4       O        0.24290    0.29640    0.39110    1.000
    C16      C        0.24940    0.91880    0.76420    1.000
    Zn4      Zn       0.19596    0.30771    0.30918    1.000
    O5       O        0.28205    0.89467    0.72000    1.000
    O6       O        0.20860    0.88850    0.79200    1.000
    N9       N        0.72700    0.23740    0.39220    1.000
    Zn5      Zn       0.80992    0.30983    0.30418    1.000
    N10      N        0.77693    0.27977    0.39776    1.000
    C17      C        0.70710    0.22150    0.45280    1.000
    N11      N        0.79230    0.40080    0.28030    1.000
    N12      N        0.90140    0.29000    0.28060    1.000
    C18      C        0.78790    0.29000    0.46170    1.000
    H9       H        0.67200    0.19190    0.46360    1.000
    C19      C        0.74480    0.25390    0.49580    1.000
    C20      C        0.79000    0.45970    0.28660    1.000
    C21      C        0.70920    0.45850    0.21070    1.000
    H10      H        0.82100    0.31820    0.48000    1.000
    C22      C        0.74230    0.23590    0.56730    1.000
    H11      H        0.81360    0.48000    0.32200    1.000
    C23      C        0.75030    0.50270    0.23970    1.000
    H12      H        0.67010    0.47450    0.18990    1.000
    O7       O        0.74290    0.20360    0.60890    1.000
    C24      C        0.74940    0.58120    0.23580    1.000
    Zn6      Zn       0.69596    0.19229    0.69082    1.000
    O8       O        0.78205    0.60533    0.28000    1.000
    O9       O        0.70860    0.61150    0.20800    1.000
    N13      N        0.77300    0.76260    0.89220    1.000
    Zn7      Zn       0.69008    0.69017    0.80418    1.000
    N14      N        0.72307    0.72023    0.89776    1.000
    C25      C        0.79290    0.77850    0.95280    1.000
    N15      N        0.70770    0.59920    0.78030    1.000
    N16      N        0.59860    0.71000    0.78060    1.000
    C26      C        0.71210    0.71000    0.96170    1.000
    H13      H        0.82800    0.80810    0.96360    1.000
    C27      C        0.75520    0.74610    0.99580    1.000
    C28      C        0.71000    0.54030    0.78660    1.000
    C29      C        0.79080    0.54150    0.71070    1.000
    H14      H        0.67900    0.68180    0.98000    1.000
    C30      C        0.75770    0.76410    0.06730    1.000
    H15      H        0.68640    0.52000    0.82200    1.000
    C31      C        0.74970    0.49730    0.73970    1.000
    H16      H        0.82990    0.52550    0.68990    1.000
    O10      O        0.75710    0.79640    0.10890    1.000
    C32      C        0.75060    0.41880    0.73580    1.000
    Zn8      Zn       0.80404    0.80771    0.19082    1.000
    O11      O        0.71795    0.39467    0.78000    1.000
    O12      O        0.79140    0.38850    0.70800    1.000
    N17      N        0.10780    0.27300    0.73740    1.000
    Zn9      Zn       0.19582    0.19008    0.80983    1.000
    N18      N        0.10224    0.22307    0.77977    1.000
    C33      C        0.04720    0.29290    0.72150    1.000
    N19      N        0.21970    0.20770    0.90080    1.000
    N20      N        0.21940    0.09860    0.79000    1.000
    C34      C        0.03830    0.21210    0.79000    1.000
    H17      H        0.03640    0.32800    0.69190    1.000
    C35      C        0.00420    0.25520    0.75390    1.000
    C36      C        0.21340    0.21000    0.95970    1.000
    C37      C        0.28930    0.29080    0.95850    1.000
    H18      H        0.02000    0.17900    0.81820    1.000
    C38      C        0.93270    0.25770    0.73590    1.000
    H19      H        0.17800    0.18640    0.98000    1.000
    C39      C        0.26030    0.24970    0.00270    1.000
    H20      H        0.31010    0.32990    0.97450    1.000
    O13      O        0.89110    0.25710    0.70360    1.000
    C40      C        0.26420    0.25060    0.08120    1.000
    Zn10     Zn       0.80918    0.30404    0.69229    1.000
    O14      O        0.22000    0.21795    0.10533    1.000
    O15      O        0.29200    0.29140    0.11150    1.000
    N21      N        0.60780    0.22700    0.26260    1.000
    Zn11     Zn       0.69582    0.30992    0.19017    1.000
    N22      N        0.60224    0.27693    0.22023    1.000
    C41      C        0.54720    0.20710    0.27850    1.000
    N23      N        0.71970    0.29230    0.09920    1.000
    N24      N        0.71940    0.40140    0.21000    1.000
    C42      C        0.53830    0.28790    0.21000    1.000
    H21      H        0.53640    0.17200    0.30810    1.000
    C43      C        0.50420    0.24480    0.24610    1.000
    C44      C        0.71340    0.29000    0.04030    1.000
    C45      C        0.78930    0.20920    0.04150    1.000
    H22      H        0.52000    0.32100    0.18180    1.000
    C46      C        0.43270    0.24230    0.26410    1.000
    H23      H        0.67800    0.31360    0.02000    1.000
    C47      C        0.76030    0.25030    0.99730    1.000
    H24      H        0.81010    0.17010    0.02550    1.000
    O16      O        0.39110    0.24290    0.29640    1.000
    C48      C        0.76420    0.24940    0.91880    1.000
    Zn12     Zn       0.30918    0.19596    0.30771    1.000
    O17      O        0.72000    0.28205    0.89467    1.000
    O18      O        0.79200    0.20860    0.88850    1.000
    N25      N        0.39220    0.72700    0.23740    1.000
    Zn13     Zn       0.30418    0.80992    0.30983    1.000
    N26      N        0.39776    0.77693    0.27977    1.000
    C49      C        0.45280    0.70710    0.22150    1.000
    N27      N        0.28030    0.79230    0.40080    1.000
    N28      N        0.28060    0.90140    0.29000    1.000
    C50      C        0.46170    0.78790    0.29000    1.000
    H25      H        0.46360    0.67200    0.19190    1.000
    C51      C        0.49580    0.74480    0.25390    1.000
    C52      C        0.28660    0.79000    0.45970    1.000
    C53      C        0.21070    0.70920    0.45850    1.000
    H26      H        0.48000    0.82100    0.31820    1.000
    C54      C        0.56730    0.74230    0.23590    1.000
    H27      H        0.32200    0.81360    0.48000    1.000
    C55      C        0.23970    0.75030    0.50270    1.000
    H28      H        0.18990    0.67010    0.47450    1.000
    O19      O        0.60890    0.74290    0.20360    1.000
    C56      C        0.23580    0.74940    0.58120    1.000
    Zn14     Zn       0.69082    0.69596    0.19229    1.000
    O20      O        0.28000    0.78205    0.60533    1.000
    O21      O        0.20800    0.70860    0.61150    1.000
    N29      N        0.89220    0.77300    0.76260    1.000
    Zn15     Zn       0.80418    0.69008    0.69017    1.000
    N30      N        0.89776    0.72307    0.72023    1.000
    C57      C        0.95280    0.79290    0.77850    1.000
    N31      N        0.78030    0.70770    0.59920    1.000
    N32      N        0.78060    0.59860    0.71000    1.000
    C58      C        0.96170    0.71210    0.71000    1.000
    H29      H        0.96360    0.82800    0.80810    1.000
    C59      C        0.99580    0.75520    0.74610    1.000
    C60      C        0.78660    0.71000    0.54030    1.000
    C61      C        0.71070    0.79080    0.54150    1.000
    H30      H        0.98000    0.67900    0.68180    1.000
    C62      C        0.06730    0.75770    0.76410    1.000
    H31      H        0.82200    0.68640    0.52000    1.000
    C63      C        0.73970    0.74970    0.49730    1.000
    H32      H        0.68990    0.82990    0.52550    1.000
    O22      O        0.10890    0.75710    0.79640    1.000
    C64      C        0.73580    0.75060    0.41880    1.000
    Zn16     Zn       0.19082    0.80404    0.80771    1.000
    O23      O        0.78000    0.71795    0.39467    1.000
    O24      O        0.70800    0.79140    0.38850    1.000
    N33      N        0.73740    0.10780    0.27300    1.000
    Zn17     Zn       0.80983    0.19582    0.19008    1.000
    N34      N        0.77977    0.10224    0.22307    1.000
    C65      C        0.72150    0.04720    0.29290    1.000
    N35      N        0.90080    0.21970    0.20770    1.000
    N36      N        0.79000    0.21940    0.09860    1.000
    C66      C        0.79000    0.03830    0.21210    1.000
    H33      H        0.69190    0.03640    0.32800    1.000
    C67      C        0.75390    0.00420    0.25520    1.000
    C68      C        0.95970    0.21340    0.21000    1.000
    C69      C        0.95850    0.28930    0.29080    1.000
    H34      H        0.81820    0.02000    0.17900    1.000
    C70      C        0.73590    0.93270    0.25770    1.000
    H35      H        0.98000    0.17800    0.18640    1.000
    C71      C        0.00270    0.26030    0.24970    1.000
    H36      H        0.97450    0.31010    0.32990    1.000
    O25      O        0.70360    0.89110    0.25710    1.000
    C72      C        0.08120    0.26420    0.25060    1.000
    Zn18     Zn       0.69229    0.80918    0.30404    1.000
    O26      O        0.10533    0.22000    0.21795    1.000
    O27      O        0.11150    0.29200    0.29140    1.000
    N37      N        0.26260    0.60780    0.22700    1.000
    Zn19     Zn       0.19017    0.69582    0.30992    1.000
    N38      N        0.22023    0.60224    0.27693    1.000
    C73      C        0.27850    0.54720    0.20710    1.000
    N39      N        0.09920    0.71970    0.29230    1.000
    N40      N        0.21000    0.71940    0.40140    1.000
    C74      C        0.21000    0.53830    0.28790    1.000
    H37      H        0.30810    0.53640    0.17200    1.000
    C75      C        0.24610    0.50420    0.24480    1.000
    C76      C        0.04030    0.71340    0.29000    1.000
    C77      C        0.04150    0.78930    0.20920    1.000
    H38      H        0.18180    0.52000    0.32100    1.000
    C78      C        0.26410    0.43270    0.24230    1.000
    H39      H        0.02000    0.67800    0.31360    1.000
    C79      C        0.99730    0.76030    0.25030    1.000
    H40      H        0.02550    0.81010    0.17010    1.000
    O28      O        0.29640    0.39110    0.24290    1.000
    C80      C        0.91880    0.76420    0.24940    1.000
    Zn20     Zn       0.30771    0.30918    0.19596    1.000
    O29      O        0.89467    0.72000    0.28205    1.000
    O30      O        0.88850    0.79200    0.20860    1.000
    N41      N        0.23740    0.39220    0.72700    1.000
    Zn21     Zn       0.30983    0.30418    0.80992    1.000
    N42      N        0.27977    0.39776    0.77693    1.000
    C81      C        0.22150    0.45280    0.70710    1.000
    N43      N        0.40080    0.28030    0.79230    1.000
    N44      N        0.29000    0.28060    0.90140    1.000
    C82      C        0.29000    0.46170    0.78790    1.000
    H41      H        0.19190    0.46360    0.67200    1.000
    C83      C        0.25390    0.49580    0.74480    1.000
    C84      C        0.45970    0.28660    0.79000    1.000
    C85      C        0.45850    0.21070    0.70920    1.000
    H42      H        0.31820    0.48000    0.82100    1.000
    C86      C        0.23590    0.56730    0.74230    1.000
    H43      H        0.48000    0.32200    0.81360    1.000
    C87      C        0.50270    0.23970    0.75030    1.000
    H44      H        0.47450    0.18990    0.67010    1.000
    O31      O        0.20360    0.60890    0.74290    1.000
    C88      C        0.58120    0.23580    0.74940    1.000
    Zn22     Zn       0.19229    0.69082    0.69596    1.000
    O32      O        0.60533    0.28000    0.78205    1.000
    O33      O        0.61150    0.20800    0.70860    1.000
    N45      N        0.76260    0.89220    0.77300    1.000
    Zn23     Zn       0.69017    0.80418    0.69008    1.000
    N46      N        0.72023    0.89776    0.72307    1.000
    C89      C        0.77850    0.95280    0.79290    1.000
    N47      N        0.59920    0.78030    0.70770    1.000
    N48      N        0.71000    0.78060    0.59860    1.000
    C90      C        0.71000    0.96170    0.71210    1.000
    H45      H        0.80810    0.96360    0.82800    1.000
    C91      C        0.74610    0.99580    0.75520    1.000
    C92      C        0.54030    0.78660    0.71000    1.000
    C93      C        0.54150    0.71070    0.79080    1.000
    H46      H        0.68180    0.98000    0.67900    1.000
    C94      C        0.76410    0.06730    0.75770    1.000
    H47      H        0.52000    0.82200    0.68640    1.000
    C95      C        0.49730    0.73970    0.74970    1.000
    H48      H        0.52550    0.68990    0.82990    1.000
    O34      O        0.79640    0.10890    0.75710    1.000
    C96      C        0.41880    0.73580    0.75060    1.000
    Zn24     Zn       0.80771    0.19082    0.80404    1.000
    O35      O        0.39467    0.78000    0.71795    1.000
    O36      O        0.38850    0.70800    0.79140    1.000
    Zn25     Zn       0.30080    0.69920    0.19920    1.000
    O37      O        0.24486    0.75514    0.25514    1.000
    Zn26     Zn       0.19920    0.30080    0.69920    1.000
    O38      O        0.25514    0.24486    0.75514    1.000
    Zn27     Zn       0.69920    0.19920    0.30080    1.000
    O39      O        0.75514    0.25514    0.24486    1.000
    Zn28     Zn       0.80080    0.80080    0.80080    1.000
    O40      O        0.74486    0.74486    0.74486    1.000
    O41      O        0.24440    0.74440    0.75560    1.000
    O42      O        0.25560    0.25560    0.25560    1.000
    O43      O        0.75560    0.24440    0.74440    1.000
    O44      O        0.74440    0.75560    0.24440    1.000
    Zn29     Zn       0.19662    0.19662    0.19662    1.000
    Zn30     Zn       0.30338    0.80338    0.69662    1.000
    Zn31     Zn       0.80338    0.69662    0.30338    1.000
    Zn32     Zn       0.69662    0.30338    0.80338    1.000
