# CIF file generated by openbabel 3.1.0, see https://openbabel.org
data_I
_chemical_name_common 'ZEZQIG_clean'
_cell_length_a 9.9544
_cell_length_b 11.7155
_cell_length_c 13.5215
_cell_angle_alpha 66.897
_cell_angle_beta 87.033
_cell_angle_gamma 76.402
_space_group_name_H-M_alt 'P 1'
_space_group_name_Hall 'P 1'
loop_
    _symmetry_equiv_pos_as_xyz
    x,y,z
loop_
    _atom_site_label
    _atom_site_type_symbol
    _atom_site_fract_x
    _atom_site_fract_y
    _atom_site_fract_z
    _atom_site_occupancy
    Eu1      Eu       0.73620    0.02657    0.00472    1.000
    Eu2      Eu       0.26380    0.97343    0.99528    1.000
    H1       H        0.48700    0.37910    0.55980    1.000
    H2       H        0.44480    0.26640    0.73620    1.000
    H3       H        0.06150    0.49170    0.67980    1.000
    H4       H        0.19600    0.67440    0.34240    1.000
    H5       H        0.81340    0.89770    0.29520    1.000
    H6       H        0.78280    0.79960    0.47490    1.000
    H7       H        0.80850    0.09550    0.55670    1.000
    H8       H        0.73760    0.07000    0.72590    1.000
    H9       H        0.40810    0.96640    0.66090    1.000
    H10      H        0.51300    0.62090    0.44020    1.000
    H11      H        0.55520    0.73360    0.26380    1.000
    H12      H        0.93850    0.50830    0.32020    1.000
    H13      H        0.80400    0.32560    0.65760    1.000
    H14      H        0.18660    0.10230    0.70480    1.000
    H15      H        0.21720    0.20040    0.52510    1.000
    H16      H        0.19150    0.90450    0.44330    1.000
    H17      H        0.26240    0.93000    0.27410    1.000
    H18      H        0.59190    0.03360    0.33910    1.000
    C1       C        0.21100    0.29100    0.84120    1.000
    C2       C        0.40010    0.40210    0.58470    1.000
    C3       C        0.37610    0.33260    0.69100    1.000
    C4       C        0.24680    0.36520    0.72720    1.000
    C5       C        0.14930    0.46700    0.65700    1.000
    C6       C        0.18420    0.53110    0.55340    1.000
    C7       C        0.08200    0.64050    0.47570    1.000
    C8       C        0.11040    0.70060    0.36760    1.000
    C9       C        0.01100    0.79840    0.29890    1.000
    C10      C        0.88440    0.83390    0.33980    1.000
    C11      C        0.86640    0.77260    0.44770    1.000
    C12      C        0.03490    0.86690    0.18210    1.000
    C13      C        0.51180    0.99660    0.82360    1.000
    C14      C        0.72580    0.07070    0.57730    1.000
    C15      C        0.68500    0.05450    0.67970    1.000
    C16      C        0.56470    0.01490    0.71230    1.000
    C17      C        0.48990    0.99300    0.64090    1.000
    C18      C        0.53830    0.01120    0.53940    1.000
    C19      C        0.78900    0.70900    0.15880    1.000
    C20      C        0.59990    0.59790    0.41530    1.000
    C21      C        0.62390    0.66740    0.30900    1.000
    C22      C        0.75320    0.63480    0.27280    1.000
    C23      C        0.85070    0.53300    0.34300    1.000
    C24      C        0.81580    0.46890    0.44660    1.000
    C25      C        0.91800    0.35950    0.52430    1.000
    C26      C        0.88960    0.29940    0.63240    1.000
    C27      C        0.98900    0.20160    0.70110    1.000
    C28      C        0.11560    0.16610    0.66020    1.000
    C29      C        0.13360    0.22740    0.55230    1.000
    C30      C        0.96510    0.13310    0.81790    1.000
    C31      C        0.48820    0.00340    0.17640    1.000
    C32      C        0.27420    0.92930    0.42270    1.000
    C33      C        0.31500    0.94550    0.32030    1.000
    C34      C        0.43530    0.98510    0.28770    1.000
    C35      C        0.51010    0.00700    0.35910    1.000
    C36      C        0.46170    0.98880    0.46060    1.000
    N1       N        0.30790    0.49920    0.51550    1.000
    N2       N        0.95990    0.67810    0.51510    1.000
    N3       N        0.65470    0.05320    0.50560    1.000
    N4       N        0.69210    0.50080    0.48450    1.000
    N5       N        0.04010    0.32190    0.48490    1.000
    N6       N        0.34530    0.94680    0.49440    1.000
    O1       O        0.29500    0.18640    0.89310    1.000
    O2       O        0.10180    0.33600    0.87660    1.000
    O3       O        0.15660    0.84970    0.15150    1.000
    O4       O        0.93200    0.94130    0.12160    1.000
    O5       O        0.39570    0.97270    0.84150    1.000
    O6       O        0.58730    0.00760    0.88820    1.000
    O7       O        0.70500    0.81360    0.10690    1.000
    O8       O        0.89820    0.66400    0.12340    1.000
    O9       O        0.84340    0.15030    0.84850    1.000
    O10      O        0.06800    0.05870    0.87840    1.000
    O11      O        0.60430    0.02730    0.15850    1.000
    O12      O        0.41270    0.99240    0.11180    1.000
