# CIF file generated by openbabel 3.1.0, see https://openbabel.org
data_I
_chemical_name_common 'Cell_Modified_EBAVAH'
_cell_length_a 18.8276
_cell_length_b 18.8276
_cell_length_c 54.149
_cell_angle_alpha 90
_cell_angle_beta 90
_cell_angle_gamma 120
_space_group_name_H-M_alt 'P 1'
_space_group_name_Hall 'P 1'
loop_
    _symmetry_equiv_pos_as_xyz
    x,y,z
loop_
    _atom_site_label
    _atom_site_type_symbol
    _atom_site_fract_x
    _atom_site_fract_y
    _atom_site_fract_z
    _atom_site_occupancy
    C1       C        0.22642    0.08770    0.22827    1.000
    C2       C        0.21402    0.01711    0.24069    1.000
    C3       C        0.18790    0.00260    0.26553    1.000
    C4       C        0.17519    0.06200    0.27785    1.000
    C5       C        0.18796    0.13418    0.26556    1.000
    C6       C        0.21409    0.14588    0.24073    1.000
    H7       H        0.22253    0.97216    0.23063    1.000
    H8       H        0.15318    0.05096    0.29672    1.000
    H9       H        0.22265    0.19940    0.23068    1.000
    C10      C        0.89121    0.42065    0.56025    1.000
    C11      C        0.87957    0.47918    0.57277    1.000
    C12      C        0.85499    0.46814    0.59775    1.000
    C13      C        0.84308    0.39649    0.61010    1.000
    C14      C        0.85505    0.33682    0.59773    1.000
    C15      C        0.87961    0.35044    0.57275    1.000
    H16      H        0.88748    0.53241    0.56270    1.000
    H17      H        0.82229    0.38607    0.62909    1.000
    H18      H        0.88753    0.30516    0.56266    1.000
    C19      C        0.55681    0.75264    0.89405    1.000
    C20      C        0.54506    0.68231    0.90651    1.000
    C21      C        0.52028    0.66851    0.93146    1.000
    C22      C        0.50827    0.72814    0.94386    1.000
    C23      C        0.52034    0.79990    0.93154    1.000
    C24      C        0.54514    0.81111    0.90659    1.000
    H25      H        0.55302    0.63708    0.89640    1.000
    H26      H        0.48732    0.71759    0.96283    1.000
    H27      H        0.55317    0.86442    0.89654    1.000
    C28      C        0.82498    0.08961    0.22836    1.000
    C29      C        0.76716    0.01878    0.24073    1.000
    C30      C        0.77893    0.00441    0.26555    1.000
    C31      C        0.85063    0.06410    0.27791    1.000
    C32      C        0.90971    0.13648    0.26565    1.000
    C33      C        0.89520    0.14816    0.24083    1.000
    H34      H        0.71398    0.97351    0.23063    1.000
    H35      H        0.86171    0.05302    0.29676    1.000
    H36      H        0.94001    0.20179    0.23079    1.000
    C37      C        0.49286    0.42110    0.56072    1.000
    C38      C        0.43440    0.35085    0.57319    1.000
    C39      C        0.44558    0.33709    0.59813    1.000
    C40      C        0.51726    0.39672    0.61049    1.000
    C41      C        0.57682    0.46846    0.59813    1.000
    C42      C        0.56305    0.47962    0.57320    1.000
    H43      H        0.38118    0.30558    0.56311    1.000
    H44      H        0.52783    0.38616    0.62945    1.000
    H45      H        0.60827    0.53288    0.56312    1.000
    C46      C        0.15862    0.75268    0.89430    1.000
    C47      C        0.10003    0.68242    0.90674    1.000
    C48      C        0.11091    0.66872    0.93170    1.000
    C49      C        0.18244    0.72839    0.94412    1.000
    C50      C        0.24211    0.80014    0.93180    1.000
    C51      C        0.22862    0.81125    0.90684    1.000
    H52      H        0.04697    0.63710    0.89660    1.000
    H53      H        0.19281    0.71787    0.96310    1.000
    H54      H        0.27396    0.86449    0.89677    1.000
    C55      C        0.82417    0.68273    0.22839    1.000
    C56      C        0.89462    0.69479    0.24081    1.000
    C57      C        0.90949    0.72161    0.26558    1.000
    C58      C        0.85056    0.73517    0.27782    1.000
    C59      C        0.77868    0.72284    0.26550    1.000
    C60      C        0.76653    0.69606    0.24075    1.000
    H61      H        0.93927    0.68569    0.23078    1.000
    H62      H        0.86189    0.75776    0.29663    1.000
    H63      H        0.71315    0.68780    0.23069    1.000
    C64      C        0.49247    0.02091    0.56070    1.000
    C65      C        0.43412    0.03292    0.57316    1.000
    C66      C        0.44550    0.05821    0.59806    1.000
    C67      C        0.51727    0.07042    0.61040    1.000
    C68      C        0.57675    0.05808    0.59806    1.000
    C69      C        0.56279    0.03279    0.57316    1.000
    H70      H        0.38082    0.02481    0.56309    1.000
    H71      H        0.52797    0.09179    0.62934    1.000
    H72      H        0.60794    0.02461    0.56309    1.000
    C73      C        0.15794    0.35297    0.89413    1.000
    C74      C        0.09950    0.36483    0.90660    1.000
    C75      C        0.11067    0.38980    0.93153    1.000
    C76      C        0.18234    0.40184    0.94390    1.000
    C77      C        0.24190    0.38964    0.93156    1.000
    C78      C        0.22814    0.36466    0.90663    1.000
    H79      H        0.04628    0.35688    0.89651    1.000
    H80      H        0.19289    0.42298    0.96286    1.000
    H81      H        0.27338    0.35662    0.89656    1.000
    C82      C        0.09304    0.22215    0.69348    1.000
    C83      C        0.15132    0.20994    0.68105    1.000
    C84      C        0.13989    0.18439    0.65617    1.000
    C85      C        0.06811    0.17212    0.64382    1.000
    C86      C        0.00868    0.18464    0.65612    1.000
    C87      C        0.02271    0.21018    0.68100    1.000
    H88      H        0.20464    0.21811    0.69113    1.000
    H89      H        0.05737    0.15059    0.62490    1.000
    H90      H        0.97761    0.21852    0.69104    1.000
    C91      C        0.75713    0.55150    0.02719    1.000
    C92      C        0.81570    0.53989    0.01470    1.000
    C93      C        0.80478    0.51543    0.98973    1.000
    C94      C        0.73322    0.50363    0.97734    1.000
    C95      C        0.67355    0.51563    0.98971    1.000
    C96      C        0.68708    0.54011    0.01468    1.000
    H97      H        0.86878    0.54759    0.02481    1.000
    H98      H        0.72283    0.48285    0.95835    1.000
    H99      H        0.64176    0.54796    0.02477    1.000
    C100     C        0.42582    0.88768    0.36028    1.000
    C101     C        0.35519    0.87504    0.34785    1.000
    C102     C        0.34104    0.84917    0.32301    1.000
    C103     C        0.40067    0.83699    0.31068    1.000
    C104     C        0.47277    0.84994    0.32300    1.000
    C105     C        0.48429    0.87581    0.34785    1.000
    H106     H        0.30999    0.88317    0.35791    1.000
    H107     H        0.38985    0.81519    0.29179    1.000
    H108     H        0.53785    0.88453    0.35790    1.000
    C109     C        0.09419    0.81969    0.69317    1.000
    C110     C        0.15226    0.89037    0.68078    1.000
    C111     C        0.14033    0.90491    0.65599    1.000
    C112     C        0.06830    0.84566    0.64369    1.000
    C113     C        0.00908    0.77356    0.65596    1.000
    C114     C        0.02358    0.76159    0.68075    1.000
    H115     H        0.20579    0.93531    0.69082    1.000
    H116     H        0.05720    0.85679    0.62484    1.000
    H117     H        0.97865    0.70801    0.69078    1.000
    C118     C        0.75817    0.15298    0.02712    1.000
    C119     C        0.81655    0.22321    0.01463    1.000
    C120     C        0.80521    0.23698    0.98971    1.000
    C121     C        0.73344    0.17737    0.97739    1.000
    C122     C        0.67394    0.10565    0.98976    1.000
    C123     C        0.68787    0.09447    0.01468    1.000
    H124     H        0.86985    0.26847    0.02469    1.000
    H125     H        0.72276    0.18794    0.95844    1.000
    H126     H        0.64269    0.04122    0.02478    1.000
    C127     C        0.42639    0.48658    0.36025    1.000
    C128     C        0.48477    0.55694    0.34781    1.000
    C129     C        0.47304    0.57139    0.32299    1.000
    C130     C        0.40083    0.51230    0.31071    1.000
    C131     C        0.34128    0.44048    0.32304    1.000
    C132     C        0.35563    0.42866    0.34786    1.000
    H133     H        0.53841    0.60175    0.35784    1.000
    H134     H        0.38986    0.52336    0.29184    1.000
    H135     H        0.31048    0.37532    0.35793    1.000
    C136     C        0.69143    0.82077    0.69355    1.000
    C137     C        0.70377    0.76253    0.68113    1.000
    C138     C        0.72963    0.77411    0.65627    1.000
    C139     C        0.74212    0.84602    0.64394    1.000
    C140     C        0.72956    0.90544    0.65623    1.000
    C141     C        0.70369    0.89125    0.68109    1.000
    H142     H        0.69538    0.70909    0.69118    1.000
    H143     H        0.76386    0.85686    0.62505    1.000
    H144     H        0.69525    0.93631    0.69111    1.000
    C145     C        0.35963    0.15400    0.02761    1.000
    C146     C        0.37121    0.09537    0.01512    1.000
    C147     C        0.39561    0.10619    0.99013    1.000
    C148     C        0.40741    0.17772    0.97772    1.000
    C149     C        0.39549    0.23747    0.99006    1.000
    C150     C        0.37108    0.22406    0.01505    1.000
    H151     H        0.36342    0.04225    0.02523    1.000
    H152     H        0.42807    0.18799    0.95872    1.000
    H153     H        0.36320    0.26941    0.02511    1.000
    C154     C        0.02525    0.48716    0.35964    1.000
    C155     C        0.03758    0.55763    0.34720    1.000
    C156     C        0.06399    0.57246    0.32234    1.000
    C157     C        0.07646    0.51262    0.31004    1.000
    C158     C        0.06404    0.44039    0.32239    1.000
    C159     C        0.03765    0.42896    0.34725    1.000
    H160     H        0.02867    0.60218    0.35737    1.000
    H161     H        0.09810    0.52339    0.29113    1.000
    H162     H        0.02879    0.37559    0.35746    1.000
    O163     O        0.98954    0.40125    0.93105    1.000
    O164     O        0.85217    0.46766    0.95580    1.000
    O165     O        0.98971    0.53616    0.93116    1.000
    O166     O        0.85232    0.33230    0.95582    1.000
    O167     O        0.92630    0.36952    0.99019    1.000
    O168     O        0.06356    0.57337    0.96556    1.000
    O169     O        0.92604    0.50415    0.99020    1.000
    O170     O        0.06348    0.43790    0.96543    1.000
    Cu171    Cu       0.90676    0.42729    0.93644    1.000
    Cu172    Cu       0.00904    0.47832    0.98486    1.000
    C173     C        0.05081    0.40973    0.94351    1.000
    C174     C        0.86476    0.49569    0.97774    1.000
    C175     C        0.05096    0.58892    0.94365    1.000
    C176     C        0.86502    0.31676    0.97773    1.000
    O177     O        0.52059    0.80222    0.28916    1.000
    O178     O        0.65843    0.73587    0.26474    1.000
    O179     O        0.52066    0.66701    0.28917    1.000
    O180     O        0.65856    0.87120    0.26478    1.000
    O181     O        0.73201    0.90825    0.29925    1.000
    O182     O        0.59416    0.70399    0.32364    1.000
    O183     O        0.73195    0.77234    0.29920    1.000
    O184     O        0.59402    0.83862    0.32364    1.000
    Cu185    Cu       0.57568    0.76216    0.26990    1.000
    Cu186    Cu       0.67717    0.81288    0.31844    1.000
    C187     C        0.53287    0.83016    0.31110    1.000
    C188     C        0.71936    0.74394    0.27731    1.000
    C189     C        0.53302    0.65130    0.31110    1.000
    C190     C        0.71950    0.92405    0.27735    1.000
    O191     O        0.32443    0.06979    0.59756    1.000
    O192     O        0.18704    0.13613    0.62231    1.000
    O193     O        0.32443    0.20455    0.59761    1.000
    O194     O        0.18715    0.00066    0.62223    1.000
    O195     O        0.26106    0.03779    0.65661    1.000
    O196     O        0.39831    0.24175    0.63201    1.000
    O197     O        0.26089    0.17267    0.65671    1.000
    O198     O        0.39834    0.10638    0.63195    1.000
    Cu199    Cu       0.24155    0.09573    0.60292    1.000
    Cu200    Cu       0.34378    0.14672    0.65134    1.000
    C201     C        0.38568    0.07823    0.61003    1.000
    C202     C        0.19967    0.16428    0.64423    1.000
    C203     C        0.38569    0.25730    0.61009    1.000
    C204     C        0.19989    0.98499    0.64411    1.000
    O205     O        0.33722    0.43783    0.96546    1.000
    O206     O        0.54111    0.50455    0.99015    1.000
    O207     O        0.47257    0.57339    0.96541    1.000
    O208     O        0.40635    0.36985    0.99037    1.000
    O209     O        0.44297    0.33235    0.95603    1.000
    O210     O        0.50910    0.53593    0.93104    1.000
    O211     O        0.57834    0.46775    0.95580    1.000
    O212     O        0.37441    0.40091    0.93111    1.000
    Cu213    Cu       0.43223    0.47857    0.98484    1.000
    Cu214    Cu       0.48325    0.42708    0.93649    1.000
    C215     C        0.32166    0.40951    0.94355    1.000
    C216     C        0.59386    0.49596    0.97771    1.000
    C217     C        0.50059    0.58878    0.94347    1.000
    C218     C        0.41496    0.31702    0.97797    1.000
    O219     O        0.17624    0.86966    0.26480    1.000
    O220     O        0.11022    0.66427    0.28902    1.000
    O221     O        0.04080    0.73524    0.26526    1.000
    O222     O        0.24529    0.80063    0.28919    1.000
    O223     O        0.20803    0.83675    0.32362    1.000
    O224     O        0.00490    0.76970    0.29839    1.000
    O225     O        0.07375    0.70104    0.32344    1.000
    O226     O        0.13939    0.90616    0.29926    1.000
    Cu227    Cu       0.14977    0.76037    0.27007    1.000
    Cu228    Cu       0.09905    0.80993    0.31814    1.000
    C229     C        0.16776    0.92233    0.27736    1.000
    C230     C        0.08250    0.64825    0.31100    1.000
    C231     C        0.98996    0.74257    0.27738    1.000
    C232     C        0.26096    0.82871    0.31111    1.000
    O233     O        0.67217    0.10640    0.63191    1.000
    O234     O        0.87609    0.17319    0.65660    1.000
    O235     O        0.80751    0.24182    0.63172    1.000
    O236     O        0.74123    0.03821    0.65668    1.000
    O237     O        0.77783    0.00075    0.62233    1.000
    O238     O        0.84408    0.20436    0.59736    1.000
    O239     O        0.91328    0.13631    0.62225    1.000
    O240     O        0.70934    0.06950    0.59756    1.000
    Cu241    Cu       0.76724    0.14708    0.65123    1.000
    Cu242    Cu       0.81824    0.09560    0.60288    1.000
    C243     C        0.65658    0.07806    0.61002    1.000
    C244     C        0.92885    0.16463    0.64415    1.000
    C245     C        0.83550    0.25718    0.60978    1.000
    C246     C        0.74965    0.98531    0.64425    1.000
    O247     O        0.47269    0.84722    0.96554    1.000
    O248     O        0.40664    0.98473    0.99052    1.000
    O249     O        0.33735    0.84736    0.96571    1.000
    O250     O        0.54137    0.98451    0.99030    1.000
    O251     O        0.57846    0.05853    0.95594    1.000
    O252     O        0.37452    0.92141    0.93135    1.000
    O253     O        0.44312    0.05870    0.95615    1.000
    O254     O        0.50918    0.92126    0.93118    1.000
    Cu255    Cu       0.43245    0.90176    0.98502    1.000
    Cu256    Cu       0.48335    0.00420    0.93665    1.000
    C257     C        0.50068    0.85988    0.94360    1.000
    C258     C        0.41517    0.04610    0.97809    1.000
    C259     C        0.32179    0.86007    0.94380    1.000
    C260     C        0.59410    0.04580    0.97783    1.000
    O261     O        0.13948    0.18207    0.29932    1.000
    O262     O        0.07387    0.32159    0.32354    1.000
    O263     O        0.00499    0.18395    0.29850    1.000
    O264     O        0.20817    0.32003    0.32370    1.000
    O265     O        0.24537    0.39341    0.28927    1.000
    O266     O        0.04091    0.25428    0.26538    1.000
    O267     O        0.11028    0.39474    0.28910    1.000
    O268     O        0.17634    0.25546    0.26487    1.000
    Cu269    Cu       0.09916    0.23795    0.31824    1.000
    Cu270    Cu       0.14985    0.33822    0.27016    1.000
    C271     C        0.16784    0.19429    0.27742    1.000
    C272     C        0.08258    0.38309    0.31109    1.000
    C273     C        0.99008    0.19609    0.27749    1.000
    C274     C        0.26110    0.38097    0.31118    1.000
    O275     O        0.74138    0.65304    0.65675    1.000
    O276     O        0.80747    0.51556    0.63176    1.000
    O277     O        0.87626    0.65276    0.65656    1.000
    O278     O        0.67220    0.51569    0.63199    1.000
    O279     O        0.70929    0.58969    0.59763    1.000
    O280     O        0.91331    0.72680    0.62220    1.000
    O281     O        0.84395    0.58957    0.59739    1.000
    O282     O        0.77785    0.72700    0.62237    1.000
    Cu283    Cu       0.76732    0.57012    0.65128    1.000
    Cu284    Cu       0.81816    0.67252    0.60290    1.000
    C285     C        0.74975    0.71432    0.64430    1.000
    C286     C        0.83541    0.52818    0.60981    1.000
    C287     C        0.92902    0.71398    0.64407    1.000
    C288     C        0.65658    0.52838    0.61009    1.000
    C289     C        0.14845    0.33390    0.86795    1.000
    C290     C        0.14140    0.31964    0.84597    1.000
    C291     C        0.13369    0.30386    0.81959    1.000
    C292     C        0.19004    0.36263    0.80297    1.000
    C293     C        0.18236    0.34736    0.77730    1.000
    C294     C        0.11818    0.27313    0.76790    1.000
    C295     C        0.06290    0.21570    0.78482    1.000
    C296     C        0.07036    0.23052    0.80975    1.000
    C297     C        0.11018    0.25678    0.74155    1.000
    C298     C        0.10286    0.24194    0.71961    1.000
    H299     H        0.23984    0.42016    0.80980    1.000
    H300     H        0.22642    0.39336    0.76486    1.000
    N301     N        0.99872    0.14239    0.77895    1.000
    N302     N        0.01188    0.16856    0.82293    1.000
    C303     C        0.43580    0.90780    0.38637    1.000
    C304     C        0.44329    0.92291    0.40829    1.000
    C305     C        0.45152    0.93957    0.43461    1.000
    C306     C        0.51538    0.01420    0.44390    1.000
    C307     C        0.52331    0.02976    0.46955    1.000
    C308     C        0.46753    0.97089    0.48625    1.000
    C309     C        0.40451    0.89715    0.47652    1.000
    C310     C        0.39680    0.88205    0.45162    1.000
    C311     C        0.47550    0.98697    0.51260    1.000
    C312     C        0.48275    0.00150    0.53455    1.000
    H313     H        0.55900    0.06027    0.43139    1.000
    H314     H        0.57285    0.08759    0.47630    1.000
    N315     N        0.34657    0.83505    0.48980    1.000
    N316     N        0.33299    0.80837    0.44585    1.000
    C317     C        0.76634    0.56995    0.05339    1.000
    C318     C        0.77326    0.58373    0.07539    1.000
    C319     C        0.78105    0.59900    0.10178    1.000
    C320     C        0.79989    0.67611    0.11135    1.000
    C321     C        0.80770    0.69139    0.13709    1.000
    C322     C        0.79690    0.63007    0.15411    1.000
    C323     C        0.77807    0.55357    0.14465    1.000
    C324     C        0.77017    0.53813    0.11863    1.000
    C325     C        0.80573    0.64676    0.18042    1.000
    C326     C        0.81370    0.66210    0.20233    1.000
    H327     H        0.80872    0.72489    0.09889    1.000
    H328     H        0.82238    0.75154    0.14369    1.000
    N329     N        0.76570    0.48791    0.15769    1.000
    N330     N        0.75216    0.46148    0.11321    1.000
    C331     C        0.10445    0.80937    0.71923    1.000
    C332     C        0.11204    0.80160    0.74112    1.000
    C333     C        0.12023    0.79301    0.76742    1.000
    C334     C        0.06818    0.80108    0.78442    1.000
    C335     C        0.07575    0.79340    0.81009    1.000
    C336     C        0.13572    0.77744    0.81975    1.000
    C337     C        0.19068    0.76886    0.80210    1.000
    C338     C        0.18336    0.77623    0.77733    1.000
    C339     C        0.14293    0.76935    0.84612    1.000
    C340     C        0.14956    0.76214    0.86810    1.000
    H341     H        0.02117    0.81351    0.77781    1.000
    H342     H        0.03429    0.80003    0.82250    1.000
    N343     N        0.25101    0.75370    0.80794    1.000
    N344     N        0.23802    0.76682    0.76397    1.000
    C345     C        0.48331    0.43064    0.53456    1.000
    C346     C        0.47608    0.43783    0.51261    1.000
    C347     C        0.46790    0.44587    0.48627    1.000
    C348     C        0.51804    0.43572    0.46915    1.000
    C349     C        0.51035    0.44300    0.44423    1.000
    C350     C        0.45193    0.46092    0.43462    1.000
    C351     C        0.40082    0.47140    0.45143    1.000
    C352     C        0.40872    0.46390    0.47708    1.000
    C353     C        0.44394    0.46905    0.40827    1.000
    C354     C        0.43647    0.47651    0.38634    1.000
    N355     N        0.57711    0.41844    0.47480    1.000
    N356     N        0.56356    0.43132    0.43084    1.000
    H357     H        0.35493    0.48538    0.44476    1.000
    H358     H        0.36875    0.47216    0.48968    1.000
    C359     C        0.76788    0.14349    0.05328    1.000
    C360     C        0.77524    0.13640    0.07523    1.000
    C361     C        0.78350    0.12848    0.10157    1.000
    C362     C        0.79425    0.06572    0.11124    1.000
    C363     C        0.80204    0.05827    0.13727    1.000
    C364     C        0.79916    0.11346    0.15392    1.000
    C365     C        0.78827    0.17679    0.14415    1.000
    C366     C        0.78054    0.18415    0.11839    1.000
    C367     C        0.80752    0.10630    0.18029    1.000
    C368     C        0.81504    0.09937    0.20224    1.000
    N369     N        0.79854    0.00718    0.09840    1.000
    N370     N        0.81192    0.99445    0.14289    1.000
    H371     H        0.78575    0.22085    0.15645    1.000
    H372     H        0.77219    0.23364    0.11162    1.000
    C373     C        0.57615    0.76251    0.86789    1.000
    C374     C        0.59086    0.77015    0.84593    1.000
    C375     C        0.60747    0.77884    0.81958    1.000
    C376     C        0.54751    0.72886    0.80236    1.000
    C377     C        0.56290    0.73678    0.77746    1.000
    C378     C        0.63939    0.79530    0.76794    1.000
    C379     C        0.70064    0.84638    0.78486    1.000
    C380     C        0.68479    0.83822    0.81050    1.000
    C381     C        0.65599    0.80332    0.74159    1.000
    C382     C        0.67117    0.81074    0.71966    1.000
    N383     N        0.47110    0.66963    0.80789    1.000
    N384     N        0.49827    0.68358    0.76397    1.000
    H385     H        0.76060    0.89240    0.77829    1.000
    H386     H        0.73281    0.87814    0.82317    1.000
    C387     C        0.00487    0.47714    0.38575    1.000
    C388     C        0.98971    0.46985    0.40769    1.000
    C389     C        0.97321    0.46206    0.43406    1.000
    C390     C        0.03493    0.51242    0.45096    1.000
    C391     C        0.01918    0.50455    0.47661    1.000
    C392     C        0.94148    0.44617    0.48573    1.000
    C393     C        0.88106    0.39689    0.46852    1.000
    C394     C        0.89636    0.40454    0.44360    1.000
    C395     C        0.92498    0.43776    0.51209    1.000
    C396     C        0.91038    0.43033    0.53406    1.000
    H397     H        0.09519    0.55767    0.44437    1.000
    H398     H        0.06758    0.54391    0.48926    1.000
    N399     N        0.80425    0.33865    0.47407    1.000
    N400     N        0.83125    0.35212    0.43014    1.000
    C401     C        0.24669    0.09789    0.20215    1.000
    C402     C        0.26178    0.10540    0.18021    1.000
    C403     C        0.27816    0.11342    0.15383    1.000
    C404     C        0.21674    0.06233    0.13696    1.000
    C405     C        0.23240    0.07021    0.11131    1.000
    C406     C        0.30971    0.12932    0.10215    1.000
    C407     C        0.36982    0.17943    0.11933    1.000
    C408     C        0.35460    0.17177    0.14425    1.000
    C409     C        0.32617    0.13748    0.07578    1.000
    C410     C        0.34065    0.14462    0.05381    1.000
    H411     H        0.15679    0.01648    0.14358    1.000
    H412     H        0.18425    0.03023    0.09868    1.000
    N413     N        0.44625    0.23846    0.11373    1.000
    N414     N        0.41940    0.22497    0.15768    1.000
    S415     S        0.41683    0.62249    0.78211    1.000
    S416     S        0.94626    0.09038    0.80446    1.000
    S417     S        0.30000    0.74841    0.78234    1.000
    S418     S        0.28118    0.75637    0.47143    1.000
    S419     S        0.62437    0.41095    0.44910    1.000
    S420     S        0.74947    0.29213    0.44831    1.000
    S421     S        0.81197    0.94254    0.11721    1.000
    S422     S        0.74447    0.40691    0.13908    1.000
    S423     S        0.50077    0.28571    0.13947    1.000
