# CIF file generated by openbabel 3.1.0, see https://openbabel.org
data_I
_chemical_name_common 'FEVNOK_clean'
_cell_length_a 4.7101
_cell_length_b 10.7704
_cell_length_c 20.0289
_cell_angle_alpha 90
_cell_angle_beta 90
_cell_angle_gamma 95.472
_space_group_name_H-M_alt 'P 1'
_space_group_name_Hall 'P 1'
loop_
    _symmetry_equiv_pos_as_xyz
    x,y,z
loop_
    _atom_site_label
    _atom_site_type_symbol
    _atom_site_fract_x
    _atom_site_fract_y
    _atom_site_fract_z
    _atom_site_occupancy
    Cu1      Cu       0.31100    0.46500    0.66360    1.000
    Cu2      Cu       0.68900    0.03500    0.16360    1.000
    Cu3      Cu       0.68900    0.53500    0.33640    1.000
    Cu4      Cu       0.31100    0.96500    0.83640    1.000
    H1       H        0.23466    0.43135    0.91538    1.000
    H2       H        0.40361    0.53635    0.81680    1.000
    H3       H        0.61129    0.35527    0.57496    1.000
    H4       H        0.17998    0.63198    0.53545    1.000
    H5       H        0.76534    0.06865    0.41538    1.000
    H6       H        0.59639    0.96365    0.31680    1.000
    H7       H        0.38871    0.14473    0.07496    1.000
    H8       H        0.82002    0.86802    0.03545    1.000
    H9       H        0.76534    0.56865    0.08462    1.000
    H10      H        0.59639    0.46365    0.18320    1.000
    H11      H        0.38871    0.64473    0.42504    1.000
    H12      H        0.82002    0.36802    0.46455    1.000
    H13      H        0.23466    0.93135    0.58462    1.000
    H14      H        0.40361    0.03635    0.68320    1.000
    H15      H        0.61129    0.85527    0.92504    1.000
    H16      H        0.17998    0.13198    0.96455    1.000
    C1       C        0.05900    0.30000    0.75500    1.000
    C2       C        0.95700    0.24000    0.81300    1.000
    C3       C        0.18800    0.40000    0.87200    1.000
    C4       C        0.28900    0.45900    0.81540    1.000
    C5       C        0.00700    0.24000    0.68500    1.000
    C6       C        0.78400    0.12000    0.82000    1.000
    C7       C        0.56700    0.41600    0.54300    1.000
    C8       C        0.31400    0.57700    0.52100    1.000
    C9       C        0.94100    0.20000    0.25500    1.000
    C10      C        0.04300    0.26000    0.31300    1.000
    C11      C        0.81200    0.10000    0.37200    1.000
    C12      C        0.71100    0.04100    0.31540    1.000
    C13      C        0.99300    0.26000    0.18500    1.000
    C14      C        0.21600    0.38000    0.32000    1.000
    C15      C        0.43300    0.08400    0.04300    1.000
    C16      C        0.68600    0.92300    0.02100    1.000
    C17      C        0.94100    0.70000    0.24500    1.000
    C18      C        0.04300    0.76000    0.18700    1.000
    C19      C        0.81200    0.60000    0.12800    1.000
    C20      C        0.71100    0.54100    0.18460    1.000
    C21      C        0.99300    0.76000    0.31500    1.000
    C22      C        0.21600    0.88000    0.18000    1.000
    C23      C        0.43300    0.58400    0.45700    1.000
    C24      C        0.68600    0.42300    0.47900    1.000
    C25      C        0.05900    0.80000    0.74500    1.000
    C26      C        0.95700    0.74000    0.68700    1.000
    C27      C        0.18800    0.90000    0.62800    1.000
    C28      C        0.28900    0.95900    0.68460    1.000
    C29      C        0.00700    0.74000    0.81500    1.000
    C30      C        0.78400    0.62000    0.68000    1.000
    C31      C        0.56700    0.91600    0.95700    1.000
    C32      C        0.31400    0.07700    0.97900    1.000
    N1       N        0.22000    0.40400    0.75630    1.000
    N2       N        0.02500    0.29000    0.87100    1.000
    N3       N        0.38900    0.49300    0.56320    1.000
    N4       N        0.78000    0.09600    0.25630    1.000
    N5       N        0.97500    0.21000    0.37100    1.000
    N6       N        0.61100    0.00700    0.06320    1.000
    N7       N        0.78000    0.59600    0.24370    1.000
    N8       N        0.97500    0.71000    0.12900    1.000
    N9       N        0.61100    0.50700    0.43680    1.000
    N10      N        0.22000    0.90400    0.74370    1.000
    N11      N        0.02500    0.79000    0.62900    1.000
    N12      N        0.38900    0.99300    0.93680    1.000
    O1       O        0.12900    0.30500    0.63000    1.000
    O2       O        0.87200    0.13600    0.68600    1.000
    O3       O        0.49500    0.13600    0.81700    1.000
    O4       O        0.88600    0.02700    0.83700    1.000
    O5       O        0.87100    0.19500    0.13000    1.000
    O6       O        0.12800    0.36400    0.18600    1.000
    O7       O        0.50500    0.36400    0.31700    1.000
    O8       O        0.11400    0.47300    0.33700    1.000
    O9       O        0.87100    0.69500    0.37000    1.000
    O10      O        0.12800    0.86400    0.31400    1.000
    O11      O        0.50500    0.86400    0.18300    1.000
    O12      O        0.11400    0.97300    0.16300    1.000
    O13      O        0.12900    0.80500    0.87000    1.000
    O14      O        0.87200    0.63600    0.81400    1.000
    O15      O        0.49500    0.63600    0.68300    1.000
    O16      O        0.88600    0.52700    0.66300    1.000
