# CIF file generated by openbabel 3.1.0, see https://openbabel.org
data_I
_chemical_name_common 'XAZGAG_charged'
_cell_length_a 6.543
_cell_length_b 29.402
_cell_length_c 16.849
_cell_angle_alpha 90
_cell_angle_beta 90
_cell_angle_gamma 90
_space_group_name_H-M_alt 'P 1'
_space_group_name_Hall 'P 1'
loop_
    _symmetry_equiv_pos_as_xyz
    x,y,z
loop_
    _atom_site_label
    _atom_site_type_symbol
    _atom_site_fract_x
    _atom_site_fract_y
    _atom_site_fract_z
    _atom_site_occupancy
    Ag1      Ag       0.75000    0.97833    0.78505    1.000
    Ag2      Ag       0.25000    0.52167    0.28505    1.000
    Ag3      Ag       0.25000    0.02167    0.21495    1.000
    Ag4      Ag       0.75000    0.47833    0.71495    1.000
    Ag5      Ag       0.25000    0.83149    0.59590    1.000
    Ag6      Ag       0.25000    0.84045    0.97703    1.000
    Ag7      Ag       0.75000    0.66851    0.09590    1.000
    Ag8      Ag       0.75000    0.65955    0.47703    1.000
    Ag9      Ag       0.75000    0.16851    0.40410    1.000
    Ag10     Ag       0.75000    0.15955    0.02297    1.000
    Ag11     Ag       0.25000    0.33149    0.90410    1.000
    Ag12     Ag       0.25000    0.34045    0.52297    1.000
    Ag13     Ag       0.75000    0.84673    0.28642    1.000
    Ag14     Ag       0.25000    0.65327    0.78642    1.000
    Ag15     Ag       0.25000    0.15327    0.71358    1.000
    Ag16     Ag       0.75000    0.34673    0.21358    1.000
    H1       H        0.94660    0.89050    0.85480    1.000
    H2       H        0.06380    0.92900    0.89850    1.000
    H3       H        0.13120    0.83030    0.78860    1.000
    H4       H        0.05640    0.92240    0.66230    1.000
    H5       H        0.94880    0.88570    0.71360    1.000
    H6       H        0.55460    0.74420    0.58270    1.000
    H7       H        0.45320    0.74720    0.49950    1.000
    H8       H        0.86930    0.75010    0.37990    1.000
    H9       H        0.44560    0.81410    0.42410    1.000
    H10      H        0.55500    0.85800    0.45300    1.000
    H11      H        0.36910    0.93640    0.08040    1.000
    H12      H        0.55370    0.93590    0.20400    1.000
    H13      H        0.43890    0.93640    0.28460    1.000
    H14      H        0.43570    0.82490    0.14800    1.000
    H15      H        0.55350    0.86820    0.12140    1.000
    H16      H        0.05340    0.60950    0.35480    1.000
    H17      H        0.93620    0.57100    0.39850    1.000
    H18      H        0.86880    0.66970    0.28860    1.000
    H19      H        0.94360    0.57760    0.16230    1.000
    H20      H        0.05120    0.61430    0.21360    1.000
    H21      H        0.44540    0.75580    0.08270    1.000
    H22      H        0.54680    0.75280    0.99950    1.000
    H23      H        0.13070    0.74990    0.87990    1.000
    H24      H        0.55440    0.68590    0.92410    1.000
    H25      H        0.44500    0.64200    0.95300    1.000
    H26      H        0.63090    0.56360    0.58040    1.000
    H27      H        0.44630    0.56410    0.70400    1.000
    H28      H        0.56110    0.56360    0.78460    1.000
    H29      H        0.56430    0.67510    0.64800    1.000
    H30      H        0.44650    0.63180    0.62140    1.000
    H31      H        0.44660    0.10950    0.14520    1.000
    H32      H        0.56380    0.07100    0.10150    1.000
    H33      H        0.63120    0.16970    0.21140    1.000
    H34      H        0.55640    0.07760    0.33770    1.000
    H35      H        0.44880    0.11430    0.28640    1.000
    H36      H        0.05460    0.25580    0.41730    1.000
    H37      H        0.95320    0.25280    0.50050    1.000
    H38      H        0.36930    0.24990    0.62010    1.000
    H39      H        0.94560    0.18590    0.57590    1.000
    H40      H        0.05500    0.14200    0.54700    1.000
    H41      H        0.86910    0.06360    0.91960    1.000
    H42      H        0.05370    0.06410    0.79600    1.000
    H43      H        0.93890    0.06360    0.71540    1.000
    H44      H        0.93570    0.17510    0.85200    1.000
    H45      H        0.05350    0.13180    0.87860    1.000
    H46      H        0.55340    0.39050    0.64520    1.000
    H47      H        0.43620    0.42900    0.60150    1.000
    H48      H        0.36880    0.33030    0.71140    1.000
    H49      H        0.44360    0.42240    0.83770    1.000
    H50      H        0.55120    0.38570    0.78640    1.000
    H51      H        0.94540    0.24420    0.91730    1.000
    H52      H        0.04680    0.24720    0.00050    1.000
    H53      H        0.63070    0.25010    0.12010    1.000
    H54      H        0.05440    0.31410    0.07590    1.000
    H55      H        0.94500    0.35800    0.04700    1.000
    H56      H        0.13090    0.43640    0.41960    1.000
    H57      H        0.94630    0.43590    0.29600    1.000
    H58      H        0.06110    0.43640    0.21540    1.000
    H59      H        0.06430    0.32490    0.35200    1.000
    H60      H        0.94650    0.36820    0.37860    1.000
    H61      H        0.05340    0.10950    0.14520    1.000
    H62      H        0.93620    0.07100    0.10150    1.000
    H63      H        0.86880    0.16970    0.21140    1.000
    H64      H        0.94360    0.07760    0.33770    1.000
    H65      H        0.05120    0.11430    0.28640    1.000
    H66      H        0.44540    0.25580    0.41730    1.000
    H67      H        0.54680    0.25280    0.50050    1.000
    H68      H        0.13070    0.24990    0.62010    1.000
    H69      H        0.55440    0.18590    0.57590    1.000
    H70      H        0.44500    0.14200    0.54700    1.000
    H71      H        0.63090    0.06360    0.91960    1.000
    H72      H        0.44630    0.06410    0.79600    1.000
    H73      H        0.56110    0.06360    0.71540    1.000
    H74      H        0.56430    0.17510    0.85200    1.000
    H75      H        0.44650    0.13180    0.87860    1.000
    H76      H        0.94660    0.39050    0.64520    1.000
    H77      H        0.06380    0.42900    0.60150    1.000
    H78      H        0.13120    0.33030    0.71140    1.000
    H79      H        0.05640    0.42240    0.83770    1.000
    H80      H        0.94880    0.38570    0.78640    1.000
    H81      H        0.55460    0.24420    0.91730    1.000
    H82      H        0.45320    0.24720    0.00050    1.000
    H83      H        0.86930    0.25010    0.12010    1.000
    H84      H        0.44560    0.31410    0.07590    1.000
    H85      H        0.55500    0.35800    0.04700    1.000
    H86      H        0.36910    0.43640    0.41960    1.000
    H87      H        0.55370    0.43590    0.29600    1.000
    H88      H        0.43890    0.43640    0.21540    1.000
    H89      H        0.43570    0.32490    0.35200    1.000
    H90      H        0.55350    0.36820    0.37860    1.000
    H91      H        0.55340    0.89050    0.85480    1.000
    H92      H        0.43620    0.92900    0.89850    1.000
    H93      H        0.36880    0.83030    0.78860    1.000
    H94      H        0.44360    0.92240    0.66230    1.000
    H95      H        0.55120    0.88570    0.71360    1.000
    H96      H        0.94540    0.74420    0.58270    1.000
    H97      H        0.04680    0.74720    0.49950    1.000
    H98      H        0.63070    0.75010    0.37990    1.000
    H99      H        0.05440    0.81410    0.42410    1.000
    H100     H        0.94500    0.85800    0.45300    1.000
    H101     H        0.13090    0.93640    0.08040    1.000
    H102     H        0.94630    0.93590    0.20400    1.000
    H103     H        0.06110    0.93640    0.28460    1.000
    H104     H        0.06430    0.82490    0.14800    1.000
    H105     H        0.94650    0.86820    0.12140    1.000
    H106     H        0.44660    0.60950    0.35480    1.000
    H107     H        0.56380    0.57100    0.39850    1.000
    H108     H        0.63120    0.66970    0.28860    1.000
    H109     H        0.55640    0.57760    0.16230    1.000
    H110     H        0.44880    0.61430    0.21360    1.000
    H111     H        0.05460    0.75580    0.08270    1.000
    H112     H        0.95320    0.75280    0.99950    1.000
    H113     H        0.36930    0.74990    0.87990    1.000
    H114     H        0.94560    0.68590    0.92410    1.000
    H115     H        0.05500    0.64200    0.95300    1.000
    H116     H        0.86910    0.56360    0.58040    1.000
    H117     H        0.05370    0.56410    0.70400    1.000
    H118     H        0.93890    0.56360    0.78460    1.000
    H119     H        0.93570    0.67510    0.64800    1.000
    H120     H        0.05350    0.63180    0.62140    1.000
    H121     H        0.25000    0.98690    0.81800    1.000
    H122     H        0.25000    0.98130    0.72640    1.000
    H123     H        0.25000    0.82600    0.27170    1.000
    H124     H        0.25000    0.86870    0.32600    1.000
    H125     H        0.75000    0.51310    0.31800    1.000
    H126     H        0.75000    0.51870    0.22640    1.000
    H127     H        0.75000    0.67400    0.77170    1.000
    H128     H        0.75000    0.63130    0.82600    1.000
    H129     H        0.75000    0.01310    0.18200    1.000
    H130     H        0.75000    0.01870    0.27360    1.000
    H131     H        0.75000    0.17400    0.72830    1.000
    H132     H        0.75000    0.13130    0.67400    1.000
    H133     H        0.25000    0.48690    0.68200    1.000
    H134     H        0.25000    0.48130    0.77360    1.000
    H135     H        0.25000    0.32600    0.22830    1.000
    H136     H        0.25000    0.36870    0.17400    1.000
    H137     H        0.75000    0.85690    0.57720    1.000
    H138     H        0.75000    0.81260    0.62740    1.000
    H139     H        0.25000    0.64310    0.07720    1.000
    H140     H        0.25000    0.68740    0.12740    1.000
    H141     H        0.25000    0.14310    0.42280    1.000
    H142     H        0.25000    0.18740    0.37260    1.000
    H143     H        0.75000    0.35690    0.92280    1.000
    H144     H        0.75000    0.31260    0.87260    1.000
    C1       C        0.06670    0.90927    0.85320    1.000
    C2       C        0.06650    0.90520    0.71050    1.000
    C3       C        0.56690    0.75734    0.53080    1.000
    C4       C        0.56290    0.82540    0.45210    1.000
    C5       C        0.43500    0.92483    0.23140    1.000
    C6       C        0.43360    0.85757    0.14850    1.000
    C7       C        0.93330    0.59073    0.35320    1.000
    C8       C        0.93350    0.59480    0.21050    1.000
    C9       C        0.43310    0.74266    0.03080    1.000
    C10      C        0.43710    0.67460    0.95210    1.000
    C11      C        0.56500    0.57517    0.73140    1.000
    C12      C        0.56640    0.64243    0.64850    1.000
    C13      C        0.56670    0.09073    0.14680    1.000
    C14      C        0.56650    0.09480    0.28950    1.000
    C15      C        0.06690    0.24266    0.46920    1.000
    C16      C        0.06290    0.17460    0.54790    1.000
    C17      C        0.93500    0.07517    0.76860    1.000
    C18      C        0.93360    0.14243    0.85150    1.000
    C19      C        0.43330    0.40927    0.64680    1.000
    C20      C        0.43350    0.40520    0.78950    1.000
    C21      C        0.93310    0.25734    0.96920    1.000
    C22      C        0.93710    0.32540    0.04790    1.000
    C23      C        0.06500    0.42483    0.26860    1.000
    C24      C        0.06640    0.35757    0.35150    1.000
    C25      C        0.93330    0.09073    0.14680    1.000
    C26      C        0.93350    0.09480    0.28950    1.000
    C27      C        0.43310    0.24266    0.46920    1.000
    C28      C        0.43710    0.17460    0.54790    1.000
    C29      C        0.56500    0.07517    0.76860    1.000
    C30      C        0.56640    0.14243    0.85150    1.000
    C31      C        0.06670    0.40927    0.64680    1.000
    C32      C        0.06650    0.40520    0.78950    1.000
    C33      C        0.56690    0.25734    0.96920    1.000
    C34      C        0.56290    0.32540    0.04790    1.000
    C35      C        0.43500    0.42483    0.26860    1.000
    C36      C        0.43360    0.35757    0.35150    1.000
    C37      C        0.43330    0.90927    0.85320    1.000
    C38      C        0.43350    0.90520    0.71050    1.000
    C39      C        0.93310    0.75734    0.53080    1.000
    C40      C        0.93710    0.82540    0.45210    1.000
    C41      C        0.06500    0.92483    0.23140    1.000
    C42      C        0.06640    0.85757    0.14850    1.000
    C43      C        0.56670    0.59073    0.35320    1.000
    C44      C        0.56650    0.59480    0.21050    1.000
    C45      C        0.06690    0.74266    0.03080    1.000
    C46      C        0.06290    0.67460    0.95210    1.000
    C47      C        0.93500    0.57517    0.73140    1.000
    C48      C        0.93360    0.64243    0.64850    1.000
    C49      C        0.25000    0.84950    0.78670    1.000
    C50      C        0.25000    0.96500    0.77580    1.000
    C51      C        0.25000    0.92480    0.10690    1.000
    C52      C        0.25000    0.85870    0.27190    1.000
    C53      C        0.75000    0.65050    0.28670    1.000
    C54      C        0.75000    0.53500    0.27580    1.000
    C55      C        0.75000    0.57520    0.60690    1.000
    C56      C        0.75000    0.64130    0.77190    1.000
    C57      C        0.75000    0.15050    0.21330    1.000
    C58      C        0.75000    0.03500    0.22420    1.000
    C59      C        0.75000    0.07520    0.89310    1.000
    C60      C        0.75000    0.14130    0.72810    1.000
    C61      C        0.25000    0.34950    0.71330    1.000
    C62      C        0.25000    0.46500    0.72420    1.000
    C63      C        0.25000    0.42480    0.39310    1.000
    C64      C        0.25000    0.35870    0.22810    1.000
    C65      C        0.75000    0.76030    0.40790    1.000
    C66      C        0.75000    0.82420    0.57430    1.000
    C67      C        0.25000    0.73970    0.90790    1.000
    C68      C        0.25000    0.67580    0.07430    1.000
    C69      C        0.25000    0.23970    0.59210    1.000
    C70      C        0.25000    0.17580    0.42570    1.000
    C71      C        0.75000    0.26030    0.09210    1.000
    C72      C        0.75000    0.32420    0.92570    1.000
    N1       N        0.06210    0.93656    0.77880    1.000
    N2       N        0.56230    0.80791    0.53510    1.000
    N3       N        0.43770    0.87452    0.23200    1.000
    N4       N        0.93790    0.56344    0.27880    1.000
    N5       N        0.43770    0.69209    0.03510    1.000
    N6       N        0.56230    0.62548    0.73200    1.000
    N7       N        0.56210    0.06344    0.22120    1.000
    N8       N        0.06230    0.19209    0.46490    1.000
    N9       N        0.93770    0.12548    0.76800    1.000
    N10      N        0.43790    0.43656    0.72120    1.000
    N11      N        0.93770    0.30791    0.96490    1.000
    N12      N        0.06230    0.37452    0.26800    1.000
    N13      N        0.93790    0.06344    0.22120    1.000
    N14      N        0.43770    0.19209    0.46490    1.000
    N15      N        0.56230    0.12548    0.76800    1.000
    N16      N        0.06210    0.43656    0.72120    1.000
    N17      N        0.56230    0.30791    0.96490    1.000
    N18      N        0.43770    0.37452    0.26800    1.000
    N19      N        0.43790    0.93656    0.77880    1.000
    N20      N        0.93770    0.80791    0.53510    1.000
    N21      N        0.06230    0.87452    0.23200    1.000
    N22      N        0.56210    0.56344    0.27880    1.000
    N23      N        0.06230    0.69209    0.03510    1.000
    N24      N        0.93770    0.62548    0.73200    1.000
    N25      N        0.75000    0.96190    0.01200    1.000
    N26      N        0.25000    0.53810    0.51200    1.000
    N27      N        0.25000    0.03810    0.98800    1.000
    N28      N        0.75000    0.46190    0.48800    1.000
    N29      N        0.25000    0.88020    0.85710    1.000
    N30      N        0.25000    0.87640    0.71120    1.000
    N31      N        0.25000    0.87440    0.10580    1.000
    N32      N        0.25000    0.94180    0.19000    1.000
    N33      N        0.75000    0.61980    0.35710    1.000
    N34      N        0.75000    0.62360    0.21120    1.000
    N35      N        0.75000    0.62560    0.60580    1.000
    N36      N        0.75000    0.55820    0.69000    1.000
    N37      N        0.75000    0.11980    0.14290    1.000
    N38      N        0.75000    0.12360    0.28880    1.000
    N39      N        0.75000    0.12560    0.89420    1.000
    N40      N        0.75000    0.05820    0.81000    1.000
    N41      N        0.25000    0.38020    0.64290    1.000
    N42      N        0.25000    0.37640    0.78880    1.000
    N43      N        0.25000    0.37440    0.39420    1.000
    N44      N        0.25000    0.44180    0.31000    1.000
    N45      N        0.75000    0.74010    0.48980    1.000
    N46      N        0.75000    0.81020    0.41000    1.000
    N47      N        0.25000    0.75990    0.98980    1.000
    N48      N        0.25000    0.68980    0.91000    1.000
    N49      N        0.25000    0.25990    0.51020    1.000
    N50      N        0.25000    0.18980    0.59000    1.000
    N51      N        0.75000    0.24010    0.01020    1.000
    N52      N        0.75000    0.31020    0.09000    1.000
    O1       O        0.75000    0.97190    0.94350    1.000
    O2       O        0.75000    0.98950    0.05850    1.000
    O3       O        0.75000    0.92340    0.03150    1.000
    O4       O        0.25000    0.52810    0.44350    1.000
    O5       O        0.25000    0.51050    0.55850    1.000
    O6       O        0.25000    0.57660    0.53150    1.000
    O7       O        0.25000    0.02810    0.05650    1.000
    O8       O        0.25000    0.01050    0.94150    1.000
    O9       O        0.25000    0.07660    0.96850    1.000
    O10      O        0.75000    0.47190    0.55650    1.000
    O11      O        0.75000    0.48950    0.44150    1.000
    O12      O        0.75000    0.42340    0.46850    1.000
    S1       S        0.75000    0.77509    0.78912    1.000
    O13      O        0.92120    0.76420    0.73900    1.000
    O14      O        0.57880    0.76420    0.73900    1.000
    O15      O        0.75000    0.82130    0.80600    1.000
    O16      O        0.75000    0.74900    0.85740    1.000
    S2       S        0.25000    0.72491    0.28912    1.000
    O17      O        0.07880    0.73580    0.23900    1.000
    O18      O        0.42120    0.73580    0.23900    1.000
    O19      O        0.25000    0.67870    0.30600    1.000
    O20      O        0.25000    0.75100    0.35740    1.000
    S3       S        0.25000    0.22491    0.21088    1.000
    O21      O        0.42120    0.23580    0.26100    1.000
    O22      O        0.07880    0.23580    0.26100    1.000
    O23      O        0.25000    0.17870    0.19400    1.000
    O24      O        0.25000    0.25100    0.14260    1.000
    S4       S        0.75000    0.27509    0.71088    1.000
    O25      O        0.57880    0.26420    0.76100    1.000
    O26      O        0.92120    0.26420    0.76100    1.000
    O27      O        0.75000    0.32130    0.69400    1.000
    O28      O        0.75000    0.24900    0.64260    1.000
