# CIF file generated by openbabel 3.1.0, see https://openbabel.org
data_I
_chemical_name_common 'SOTWOP_clean'
_cell_length_a 13.0177
_cell_length_b 13.0177
_cell_length_c 15.002
_cell_angle_alpha 83.6956
_cell_angle_beta 83.6956
_cell_angle_gamma 61.732
_space_group_name_H-M_alt 'P 1'
_space_group_name_Hall 'P 1'
loop_
    _symmetry_equiv_pos_as_xyz
    x,y,z
loop_
    _atom_site_label
    _atom_site_type_symbol
    _atom_site_fract_x
    _atom_site_fract_y
    _atom_site_fract_z
    _atom_site_occupancy
    Eu1      Eu       0.98978    0.34902    0.52719    1.000
    Eu2      Eu       0.34902    0.98978    0.02719    1.000
    Eu3      Eu       0.01022    0.65098    0.47281    1.000
    Eu4      Eu       0.65098    0.01022    0.97281    1.000
    H1       H        0.78090    0.73530    0.23550    1.000
    H2       H        0.70280    0.52040    0.64170    1.000
    H3       H        0.70910    0.47650    0.33830    1.000
    H4       H        0.29090    0.52350    0.66170    1.000
    H5       H        0.52350    0.29090    0.16170    1.000
    H6       H        0.29720    0.47960    0.35830    1.000
    H7       H        0.47960    0.29720    0.85830    1.000
    H8       H        0.73530    0.78090    0.73550    1.000
    H9       H        0.26470    0.21910    0.26450    1.000
    H10      H        0.52040    0.70280    0.14170    1.000
    H11      H        0.21910    0.26470    0.76450    1.000
    H12      H        0.47650    0.70910    0.83830    1.000
    C1       C        0.67680    0.58060    0.68010    1.000
    C2       C        0.30390    0.26330    0.26350    1.000
    C3       C        0.46660    0.47920    0.75280    1.000
    C4       C        0.53340    0.52080    0.24720    1.000
    C5       C        0.82970    0.63750    0.60640    1.000
    C6       C        0.52080    0.53340    0.74720    1.000
    C7       C        0.47920    0.46660    0.25280    1.000
    C8       C        0.39820    0.41800    0.75810    1.000
    C9       C        0.41940    0.32320    0.81990    1.000
    C10      C        0.69240    0.54240    0.29940    1.000
    C11      C        0.34980    0.26740    0.82400    1.000
    C12      C        0.56260    0.85300    0.86240    1.000
    C13      C        0.41800    0.39820    0.25810    1.000
    C14      C        0.30760    0.45760    0.70060    1.000
    C15      C        0.24240    0.39820    0.70180    1.000
    C16      C        0.45760    0.30760    0.20060    1.000
    C17      C        0.73670    0.69610    0.23650    1.000
    C18      C        0.39820    0.24240    0.20180    1.000
    C19      C        0.85300    0.56260    0.36240    1.000
    C20      C        0.60180    0.58200    0.24190    1.000
    C21      C        0.32320    0.41940    0.31990    1.000
    C22      C        0.60180    0.75760    0.79820    1.000
    C23      C        0.69610    0.73670    0.73650    1.000
    C24      C        0.26330    0.30390    0.76350    1.000
    C25      C        0.73260    0.65020    0.67600    1.000
    C26      C        0.54240    0.69240    0.79940    1.000
    C27      C        0.14700    0.43740    0.63760    1.000
    C28      C        0.75760    0.60180    0.29820    1.000
    C29      C        0.58060    0.67680    0.18010    1.000
    C30      C        0.36250    0.17030    0.89360    1.000
    C31      C        0.63750    0.82970    0.10640    1.000
    C32      C        0.58200    0.60180    0.74190    1.000
    C33      C        0.17030    0.36250    0.39360    1.000
    C34      C        0.65020    0.73260    0.17600    1.000
    C35      C        0.26740    0.34980    0.32400    1.000
    C36      C        0.43740    0.14700    0.13760    1.000
    N1       N        0.82870    0.27490    0.46990    1.000
    N2       N        0.72510    0.17130    0.03010    1.000
    N3       N        0.27490    0.82870    0.96990    1.000
    N4       N        0.17130    0.72510    0.53010    1.000
    O1       O        0.06150    0.78130    0.54660    1.000
    O2       O        0.89360    0.45860    0.39680    1.000
    O3       O        0.21870    0.93850    0.95340    1.000
    O4       O        0.74090    0.24030    0.06800    1.000
    O5       O        0.88300    0.63560    0.37860    1.000
    O6       O        0.71880    0.85440    0.09140    1.000
    O7       O        0.45860    0.89360    0.89680    1.000
    O8       O        0.14560    0.28120    0.40860    1.000
    O9       O        0.78130    0.06150    0.04660    1.000
    O10      O        0.11700    0.36440    0.62140    1.000
    O11      O        0.25910    0.75970    0.93200    1.000
    O12      O        0.93850    0.21870    0.45340    1.000
    O13      O        0.11740    0.45540    0.43460    1.000
    O14      O        0.79410    0.35310    0.52320    1.000
    O15      O        0.28120    0.14560    0.90860    1.000
    O16      O        0.85440    0.71880    0.59140    1.000
    O17      O        0.54140    0.10640    0.10320    1.000
    O18      O        0.54460    0.88260    0.06540    1.000
    O19      O        0.20590    0.64690    0.47680    1.000
    O20      O        0.45540    0.11740    0.93460    1.000
    O21      O        0.24030    0.74090    0.56800    1.000
    O22      O        0.36440    0.11700    0.12140    1.000
    O23      O        0.64690    0.20590    0.97680    1.000
    O24      O        0.35310    0.79410    0.02320    1.000
    O25      O        0.88260    0.54460    0.56540    1.000
    O26      O        0.63560    0.88300    0.87860    1.000
    O27      O        0.75970    0.25910    0.43200    1.000
    O28      O        0.10640    0.54140    0.60320    1.000
