# CIF file generated by openbabel 3.1.0, see https://openbabel.org
data_I
_chemical_name_common 'image0'
_cell_length_a 12.4176
_cell_length_b 22.5346
_cell_length_c 10.1644
_cell_angle_alpha 90
_cell_angle_beta 107.054
_cell_angle_gamma 90
_space_group_name_H-M_alt 'P 1'
_space_group_name_Hall 'P 1'
loop_
    _symmetry_equiv_pos_as_xyz
    x,y,z
loop_
    _atom_site_label
    _atom_site_type_symbol
    _atom_site_fract_x
    _atom_site_fract_y
    _atom_site_fract_z
    _atom_site_occupancy
    C1       C        0.15780    0.64303    0.88400    1.000
    C2       C        0.11610    0.70667    0.85900    1.000
    H1       H        0.16100    0.72760    0.80730    1.000
    H2       H        0.03680    0.70620    0.80050    1.000
    C3       C        0.03990    0.74712    0.04150    1.000
    H3       H        0.96630    0.73090    0.00800    1.000
    C4       C        0.21690    0.77000    0.06380    1.000
    H4       H        0.28840    0.77210    0.04760    1.000
    C5       C        0.18770    0.79530    0.16830    1.000
    H5       H        0.23480    0.81910    0.23940    1.000
    C6       C        0.01120    0.79910    0.24410    1.000
    H6       H        0.06010    0.79740    0.34050    1.000
    H7       H        0.94920    0.77040    0.23510    1.000
    C7       C        0.96130    0.86091    0.21610    1.000
    C8       C        0.54980    0.48951    0.88410    1.000
    C9       C        0.65920    0.49700    0.84590    1.000
    H8       H        0.65470    0.47300    0.76270    1.000
    H9       H        0.66730    0.53910    0.82280    1.000
    C10      C        0.80900    0.42393    0.97460    1.000
    H10      H        0.78670    0.39040    0.91630    1.000
    C11      C        0.89570    0.42639    0.09160    1.000
    H11      H        0.94690    0.39530    0.13020    1.000
    C12      C        0.81200    0.51405    0.06030    1.000
    H12      H        0.79350    0.55420    0.07260    1.000
    C13      C        0.98300    0.50770    0.26030    1.000
    H13      H        0.99540    0.48130    0.34110    1.000
    H14      H        0.95900    0.54700    0.28500    1.000
    C14      C        0.09210    0.51418    0.22180    1.000
    N1       N        0.12270    0.74027    0.98450    1.000
    N2       N        0.07730    0.78048    0.15320    1.000
    N3       N        0.75900    0.47900    0.95580    1.000
    N4       N        0.89530    0.48298    0.14430    1.000
    O1       O        0.91210    0.87796    0.30160    1.000
    O2       O        0.35590    0.54702    0.99350    1.000
    H15      H        0.38400    0.57950    0.02800    1.000
    O3       O        0.27580    0.54084    0.60110    1.000
    H16      H        0.22500    0.56540    0.56400    1.000
    O4       O        0.17280    0.62125    0.00250    1.000
    O5       O        0.16820    0.61713    0.78040    1.000
    O6       O        0.97230    0.88844    0.11350    1.000
    O7       O        0.55780    0.48169    0.00960    1.000
    O8       O        0.46120    0.49278    0.78690    1.000
    O9       O        0.08120    0.52689    0.09790    1.000
    O10      O        0.18350    0.50755    0.31380    1.000
    Cu1      Cu       0.42268    0.46962    0.06485    1.000
    Cu2      Cu       0.31085    0.55299    0.79600    1.000
    Cu3      Cu       0.21609    0.53871    0.04069    1.000
    C15      C        0.65780    0.14303    0.88400    1.000
    C16      C        0.61610    0.20667    0.85900    1.000
    H17      H        0.66100    0.22760    0.80730    1.000
    H18      H        0.53680    0.20620    0.80050    1.000
    C17      C        0.53990    0.24712    0.04150    1.000
    H19      H        0.46630    0.23090    0.00800    1.000
    C18      C        0.71690    0.27000    0.06380    1.000
    H20      H        0.78840    0.27210    0.04760    1.000
    C19      C        0.68770    0.29530    0.16830    1.000
    H21      H        0.73480    0.31910    0.23940    1.000
    C20      C        0.51120    0.29910    0.24410    1.000
    H22      H        0.56010    0.29740    0.34050    1.000
    H23      H        0.44920    0.27040    0.23510    1.000
    C21      C        0.46130    0.36091    0.21610    1.000
    C22      C        0.04980    0.98951    0.88410    1.000
    C23      C        0.15920    0.99700    0.84590    1.000
    H24      H        0.15470    0.97300    0.76270    1.000
    H25      H        0.16730    0.03910    0.82280    1.000
    C24      C        0.30900    0.92393    0.97460    1.000
    H26      H        0.28670    0.89040    0.91630    1.000
    C25      C        0.39570    0.92639    0.09160    1.000
    H27      H        0.44690    0.89530    0.13020    1.000
    C26      C        0.31200    0.01405    0.06030    1.000
    H28      H        0.29350    0.05420    0.07260    1.000
    C27      C        0.48300    0.00770    0.26030    1.000
    H29      H        0.49540    0.98130    0.34110    1.000
    H30      H        0.45900    0.04700    0.28500    1.000
    C28      C        0.59210    0.01418    0.22180    1.000
    N5       N        0.62270    0.24027    0.98450    1.000
    N6       N        0.57730    0.28048    0.15320    1.000
    N7       N        0.25900    0.97900    0.95580    1.000
    N8       N        0.39530    0.98298    0.14430    1.000
    O11      O        0.41210    0.37796    0.30160    1.000
    O12      O        0.85590    0.04702    0.99350    1.000
    H31      H        0.88400    0.07950    0.02800    1.000
    O13      O        0.77580    0.04084    0.60110    1.000
    H32      H        0.72500    0.06540    0.56400    1.000
    O14      O        0.67280    0.12125    0.00250    1.000
    O15      O        0.66820    0.11713    0.78040    1.000
    O16      O        0.47230    0.38844    0.11350    1.000
    O17      O        0.05780    0.98169    0.00960    1.000
    O18      O        0.96120    0.99278    0.78690    1.000
    O19      O        0.58120    0.02689    0.09790    1.000
    O20      O        0.68350    0.00755    0.31380    1.000
    Cu4      Cu       0.92268    0.96962    0.06485    1.000
    Cu5      Cu       0.81085    0.05299    0.79600    1.000
    Cu6      Cu       0.71609    0.03871    0.04069    1.000
    C29      C        0.15780    0.35697    0.38400    1.000
    C30      C        0.11610    0.29333    0.35900    1.000
    H33      H        0.16100    0.27240    0.30730    1.000
    H34      H        0.03680    0.29380    0.30050    1.000
    C31      C        0.03990    0.25288    0.54150    1.000
    H35      H        0.96630    0.26910    0.50800    1.000
    C32      C        0.21690    0.23000    0.56380    1.000
    H36      H        0.28840    0.22790    0.54760    1.000
    C33      C        0.18770    0.20470    0.66830    1.000
    H37      H        0.23480    0.18090    0.73940    1.000
    C34      C        0.01120    0.20090    0.74410    1.000
    H38      H        0.06010    0.20260    0.84050    1.000
    H39      H        0.94920    0.22960    0.73510    1.000
    C35      C        0.96130    0.13909    0.71610    1.000
    C36      C        0.54980    0.51049    0.38410    1.000
    C37      C        0.65920    0.50300    0.34590    1.000
    H40      H        0.65470    0.52700    0.26270    1.000
    H41      H        0.66730    0.46090    0.32280    1.000
    C38      C        0.80900    0.57607    0.47460    1.000
    H42      H        0.78670    0.60960    0.41630    1.000
    C39      C        0.89570    0.57361    0.59160    1.000
    H43      H        0.94690    0.60470    0.63020    1.000
    C40      C        0.81200    0.48595    0.56030    1.000
    H44      H        0.79350    0.44580    0.57260    1.000
    C41      C        0.98300    0.49230    0.76030    1.000
    H45      H        0.99540    0.51870    0.84110    1.000
    H46      H        0.95900    0.45300    0.78500    1.000
    C42      C        0.09210    0.48582    0.72180    1.000
    N9       N        0.12270    0.25973    0.48450    1.000
    N10      N        0.07730    0.21952    0.65320    1.000
    N11      N        0.75900    0.52100    0.45580    1.000
    N12      N        0.89530    0.51702    0.64430    1.000
    O21      O        0.91210    0.12204    0.80160    1.000
    O22      O        0.35590    0.45298    0.49350    1.000
    H47      H        0.38400    0.42050    0.52800    1.000
    O23      O        0.27580    0.45916    0.10110    1.000
    H48      H        0.22500    0.43460    0.06400    1.000
    O24      O        0.17280    0.37875    0.50250    1.000
    O25      O        0.16820    0.38287    0.28040    1.000
    O26      O        0.97230    0.11156    0.61350    1.000
    O27      O        0.55780    0.51831    0.50960    1.000
    O28      O        0.46120    0.50722    0.28690    1.000
    O29      O        0.08120    0.47311    0.59790    1.000
    O30      O        0.18350    0.49245    0.81380    1.000
    Cu7      Cu       0.42268    0.53038    0.56485    1.000
    Cu8      Cu       0.31085    0.44701    0.29600    1.000
    Cu9      Cu       0.21609    0.46129    0.54069    1.000
    C43      C        0.65780    0.85697    0.38400    1.000
    C44      C        0.61610    0.79333    0.35900    1.000
    H49      H        0.66100    0.77240    0.30730    1.000
    H50      H        0.53680    0.79380    0.30050    1.000
    C45      C        0.53990    0.75288    0.54150    1.000
    H51      H        0.46630    0.76910    0.50800    1.000
    C46      C        0.71690    0.73000    0.56380    1.000
    H52      H        0.78840    0.72790    0.54760    1.000
    C47      C        0.68770    0.70470    0.66830    1.000
    H53      H        0.73480    0.68090    0.73940    1.000
    C48      C        0.51120    0.70090    0.74410    1.000
    H54      H        0.56010    0.70260    0.84050    1.000
    H55      H        0.44920    0.72960    0.73510    1.000
    C49      C        0.46130    0.63909    0.71610    1.000
    C50      C        0.04980    0.01049    0.38410    1.000
    C51      C        0.15920    0.00300    0.34590    1.000
    H56      H        0.15470    0.02700    0.26270    1.000
    H57      H        0.16730    0.96090    0.32280    1.000
    C52      C        0.30900    0.07607    0.47460    1.000
    H58      H        0.28670    0.10960    0.41630    1.000
    C53      C        0.39570    0.07361    0.59160    1.000
    H59      H        0.44690    0.10470    0.63020    1.000
    C54      C        0.31200    0.98595    0.56030    1.000
    H60      H        0.29350    0.94580    0.57260    1.000
    C55      C        0.48300    0.99230    0.76030    1.000
    H61      H        0.49540    0.01870    0.84110    1.000
    H62      H        0.45900    0.95300    0.78500    1.000
    C56      C        0.59210    0.98582    0.72180    1.000
    N13      N        0.62270    0.75973    0.48450    1.000
    N14      N        0.57730    0.71952    0.65320    1.000
    N15      N        0.25900    0.02100    0.45580    1.000
    N16      N        0.39530    0.01702    0.64430    1.000
    O31      O        0.41210    0.62204    0.80160    1.000
    O32      O        0.85590    0.95298    0.49350    1.000
    H63      H        0.88400    0.92050    0.52800    1.000
    O33      O        0.77580    0.95916    0.10110    1.000
    H64      H        0.72500    0.93460    0.06400    1.000
    O34      O        0.67280    0.87875    0.50250    1.000
    O35      O        0.66820    0.88287    0.28040    1.000
    O36      O        0.47230    0.61156    0.61350    1.000
    O37      O        0.05780    0.01831    0.50960    1.000
    O38      O        0.96120    0.00722    0.28690    1.000
    O39      O        0.58120    0.97311    0.59790    1.000
    O40      O        0.68350    0.99245    0.81380    1.000
    Cu10     Cu       0.92268    0.03038    0.56485    1.000
    Cu11     Cu       0.81085    0.94701    0.29600    1.000
    Cu12     Cu       0.71609    0.96129    0.54069    1.000
