# CIF file generated by openbabel 3.1.0, see https://openbabel.org
data_I
_chemical_name_common 'LACGED_clean'
_cell_length_a 9.4092
_cell_length_b 15.6563
_cell_length_c 15.6563
_cell_angle_alpha 84.8194
_cell_angle_beta 72.5127
_cell_angle_gamma 72.5129
_space_group_name_H-M_alt 'P 1'
_space_group_name_Hall 'P 1'
loop_
    _symmetry_equiv_pos_as_xyz
    x,y,z
loop_
    _atom_site_label
    _atom_site_type_symbol
    _atom_site_fract_x
    _atom_site_fract_y
    _atom_site_fract_z
    _atom_site_occupancy
    Ca1      Ca       0.62500    0.85810    0.64190    1.000
    Ca2      Ca       0.12500    0.14190    0.35810    1.000
    Ca3      Ca       0.73310    0.64190    0.14190    1.000
    Ca4      Ca       0.51690    0.35810    0.85810    1.000
    H1       H        0.31650    0.72500    0.44700    1.000
    H2       H        0.83610    0.69850    0.30210    1.000
    H3       H        0.28840    0.59100    0.28600    1.000
    H4       H        0.02230    0.79220    0.45960    1.000
    H5       H        0.48850    0.27500    0.55300    1.000
    H6       H        0.83670    0.30150    0.69790    1.000
    H7       H        0.16540    0.40900    0.71400    1.000
    H8       H        0.27410    0.20780    0.54040    1.000
    H9       H        0.23650    0.44700    0.27500    1.000
    H10      H        0.86180    0.30210    0.30150    1.000
    H11      H        0.42560    0.28600    0.40900    1.000
    H12      H        0.51810    0.45960    0.20780    1.000
    H13      H        0.95850    0.55300    0.72500    1.000
    H14      H        0.46540    0.69790    0.69850    1.000
    H15      H        0.12060    0.71400    0.59100    1.000
    H16      H        0.18550    0.54040    0.79220    1.000
    H17      H        0.76150    0.94700    0.22500    1.000
    H18      H        0.41330    0.80210    0.19850    1.000
    H19      H        0.08460    0.78600    0.09100    1.000
    H20      H        0.97590    0.95960    0.29220    1.000
    H21      H        0.93350    0.05300    0.77500    1.000
    H22      H        0.41390    0.19790    0.80150    1.000
    H23      H        0.96160    0.21400    0.90900    1.000
    H24      H        0.22770    0.04040    0.70780    1.000
    H25      H        0.29150    0.77500    0.94700    1.000
    H26      H        0.78460    0.80150    0.80210    1.000
    H27      H        0.12940    0.90900    0.78600    1.000
    H28      H        0.06450    0.70780    0.95960    1.000
    H29      H        0.01350    0.22500    0.05300    1.000
    H30      H        0.38820    0.19850    0.19790    1.000
    H31      H        0.82440    0.09100    0.21400    1.000
    H32      H        0.73190    0.29220    0.04040    1.000
    Pb1      Pb       0.42900    0.94600    0.44600    1.000
    Pb2      Pb       0.82100    0.05400    0.55400    1.000
    Pb3      Pb       0.12500    0.44600    0.05400    1.000
    Pb4      Pb       0.62500    0.55400    0.94600    1.000
    C1       C        0.75197    0.82050    0.42596    1.000
    C2       C        0.07936    0.57735    0.20645    1.000
    C3       C        0.20250    0.88730    0.25442    1.000
    C4       C        0.92177    0.69658    0.32096    1.000
    C5       C        0.06409    0.63606    0.28258    1.000
    C6       C        0.19288    0.63262    0.31062    1.000
    C7       C        0.17648    0.69261    0.37623    1.000
    C8       C        0.03287    0.75308    0.41528    1.000
    C9       C        0.99843    0.17950    0.57404    1.000
    C10      C        0.86316    0.42265    0.79355    1.000
    C11      C        0.34422    0.11270    0.74558    1.000
    C12      C        0.93931    0.30342    0.67904    1.000
    C13      C        0.98273    0.36394    0.71742    1.000
    C14      C        0.13612    0.36738    0.68938    1.000
    C15      C        0.24532    0.30739    0.62377    1.000
    C16      C        0.20123    0.24692    0.58472    1.000
    C17      C        0.82207    0.42596    0.17950    1.000
    C18      C        0.71419    0.20645    0.42265    1.000
    C19      C        0.54308    0.25442    0.11270    1.000
    C20      C        0.75727    0.32096    0.30342    1.000
    C21      C        0.65333    0.28258    0.36394    1.000
    C22      C        0.49650    0.31062    0.36738    1.000
    C23      C        0.44729    0.37623    0.30739    1.000
    C24      C        0.55185    0.41528    0.24692    1.000
    C25      C        0.42753    0.57404    0.82050    1.000
    C26      C        0.34329    0.79355    0.57735    1.000
    C27      C        0.91020    0.74558    0.88730    1.000
    C28      C        0.38165    0.67904    0.69658    1.000
    C29      C        0.29985    0.71742    0.63606    1.000
    C30      C        0.17450    0.68938    0.63262    1.000
    C31      C        0.13091    0.62377    0.69261    1.000
    C32      C        0.21405    0.58472    0.75308    1.000
    C33      C        0.25157    0.92596    0.32050    1.000
    C34      C        0.38684    0.70645    0.07735    1.000
    C35      C        0.90578    0.75442    0.38730    1.000
    C36      C        0.31069    0.82096    0.19658    1.000
    C37      C        0.26727    0.78258    0.13606    1.000
    C38      C        0.11388    0.81062    0.13262    1.000
    C39      C        0.00468    0.87623    0.19261    1.000
    C40      C        0.04877    0.91528    0.25308    1.000
    C41      C        0.49803    0.07404    0.67950    1.000
    C42      C        0.17064    0.29355    0.92265    1.000
    C43      C        0.04750    0.24558    0.61270    1.000
    C44      C        0.32823    0.17904    0.80342    1.000
    C45      C        0.18591    0.21742    0.86394    1.000
    C46      C        0.05712    0.18938    0.86738    1.000
    C47      C        0.07352    0.12377    0.80739    1.000
    C48      C        0.21713    0.08472    0.74692    1.000
    C49      C        0.82247    0.67950    0.92596    1.000
    C50      C        0.90671    0.92265    0.70645    1.000
    C51      C        0.33980    0.61270    0.75442    1.000
    C52      C        0.86835    0.80342    0.82096    1.000
    C53      C        0.95015    0.86394    0.78258    1.000
    C54      C        0.07550    0.86738    0.81062    1.000
    C55      C        0.11909    0.80739    0.87623    1.000
    C56      C        0.03595    0.74692    0.91528    1.000
    C57      C        0.42793    0.32050    0.07404    1.000
    C58      C        0.53581    0.07735    0.29355    1.000
    C59      C        0.70692    0.38730    0.24558    1.000
    C60      C        0.49273    0.19658    0.17904    1.000
    C61      C        0.59667    0.13606    0.21742    1.000
    C62      C        0.75350    0.13262    0.18938    1.000
    C63      C        0.80271    0.19261    0.12377    1.000
    C64      C        0.69815    0.25308    0.08472    1.000
    O1       O        0.73590    0.87102    0.48906    1.000
    O2       O        0.64365    0.82328    0.39278    1.000
    O3       O        0.97195    0.59838    0.16928    1.000
    O4       O        0.19566    0.51049    0.18301    1.000
    O5       O        0.30599    0.69127    0.39887    1.000
    O6       O        0.09598    0.12898    0.51094    1.000
    O7       O        0.85971    0.17672    0.60722    1.000
    O8       O        0.73961    0.40162    0.83072    1.000
    O9       O        0.88916    0.48951    0.81699    1.000
    O10      O        0.39613    0.30873    0.60113    1.000
    O11      O        0.77504    0.48906    0.12898    1.000
    O12      O        0.96357    0.39278    0.17672    1.000
    O13      O        0.85877    0.16928    0.40162    1.000
    O14      O        0.62133    0.18301    0.48951    1.000
    O15      O        0.29514    0.39887    0.30873    1.000
    O16      O        0.39308    0.51094    0.87102    1.000
    O17      O        0.53307    0.60722    0.82328    1.000
    O18      O        0.42967    0.83072    0.59838    1.000
    O19      O        0.29385    0.81699    0.51049    1.000
    O20      O        0.00274    0.60113    0.69127    1.000
    O21      O        0.15402    0.98906    0.37102    1.000
    O22      O        0.39029    0.89278    0.32328    1.000
    O23      O        0.51039    0.66928    0.09838    1.000
    O24      O        0.36084    0.68301    0.01049    1.000
    O25      O        0.85387    0.89887    0.19127    1.000
    O26      O        0.51410    0.01094    0.62898    1.000
    O27      O        0.60635    0.10722    0.67672    1.000
    O28      O        0.27805    0.33072    0.90162    1.000
    O29      O        0.05434    0.31699    0.98951    1.000
    O30      O        0.94401    0.10113    0.80873    1.000
    O31      O        0.85692    0.62898    0.98906    1.000
    O32      O        0.71693    0.67672    0.89278    1.000
    O33      O        0.82033    0.90162    0.66928    1.000
    O34      O        0.95615    0.98951    0.68301    1.000
    O35      O        0.24726    0.80873    0.89887    1.000
    O36      O        0.47496    0.37102    0.01094    1.000
    O37      O        0.28643    0.32328    0.10722    1.000
    O38      O        0.39123    0.09838    0.33072    1.000
    O39      O        0.62867    0.01049    0.31699    1.000
    O40      O        0.95486    0.19127    0.10113    1.000
