# CIF file generated by openbabel 3.1.0, see https://openbabel.org
data_I
_chemical_name_common 'WOMFIO_charged'
_cell_length_a 10.0523
_cell_length_b 14.3295
_cell_length_c 14.3295
_cell_angle_alpha 120
_cell_angle_beta 90
_cell_angle_gamma 90
_space_group_name_H-M_alt 'P 1'
_space_group_name_Hall 'P 1'
loop_
    _symmetry_equiv_pos_as_xyz
    x,y,z
loop_
    _atom_site_label
    _atom_site_type_symbol
    _atom_site_fract_x
    _atom_site_fract_y
    _atom_site_fract_z
    _atom_site_occupancy
    Mn1      Mn       0.60428    0.33960    0.87483    1.000
    Mn2      Mn       0.27095    0.53523    0.66040    1.000
    Mn3      Mn       0.93761    0.12517    0.46477    1.000
    Mn4      Mn       0.10428    0.66040    0.12517    1.000
    Mn5      Mn       0.77095    0.46477    0.33960    1.000
    Mn6      Mn       0.43761    0.87483    0.53523    1.000
    C1       C        0.80180    0.22030    0.68130    1.000
    C2       C        0.71470    0.12850    0.60940    1.000
    C3       C        0.60410    0.07930    0.62340    1.000
    C4       C        0.51420    0.09730    0.71420    1.000
    C5       C        0.46847    0.46100    0.77970    1.000
    C6       C        0.38137    0.48090    0.87150    1.000
    C7       C        0.27077    0.54410    0.92070    1.000
    C8       C        0.18087    0.61690    0.90270    1.000
    C9       C        0.13513    0.31870    0.53900    1.000
    C10      C        0.04803    0.39060    0.51910    1.000
    C11      C        0.93743    0.37660    0.45590    1.000
    C12      C        0.84753    0.28580    0.38310    1.000
    C13      C        0.30180    0.77970    0.31870    1.000
    C14      C        0.21470    0.87150    0.39060    1.000
    C15      C        0.10410    0.92070    0.37660    1.000
    C16      C        0.01420    0.90270    0.28580    1.000
    C17      C        0.96847    0.53900    0.22030    1.000
    C18      C        0.88137    0.51910    0.12850    1.000
    C19      C        0.77077    0.45590    0.07930    1.000
    C20      C        0.68087    0.38310    0.09730    1.000
    C21      C        0.63513    0.68130    0.46100    1.000
    C22      C        0.54803    0.60940    0.48090    1.000
    C23      C        0.43743    0.62340    0.54410    1.000
    C24      C        0.34753    0.71420    0.61690    1.000
    N1       N        0.75000    0.07030    0.50500    1.000
    N2       N        0.66620    0.98820    0.45630    1.000
    N3       N        0.57780    0.99170    0.52630    1.000
    N4       N        0.41667    0.43470    0.92970    1.000
    N5       N        0.33287    0.46810    0.01180    1.000
    N6       N        0.24447    0.53460    0.00830    1.000
    N7       N        0.08333    0.49500    0.56530    1.000
    N8       N        0.99953    0.54370    0.53190    1.000
    N9       N        0.91113    0.47370    0.46540    1.000
    N10      N        0.25000    0.92970    0.49500    1.000
    N11      N        0.16620    0.01180    0.54370    1.000
    N12      N        0.07780    0.00830    0.47370    1.000
    N13      N        0.91667    0.56530    0.07030    1.000
    N14      N        0.83287    0.53190    0.98820    1.000
    N15      N        0.74447    0.46540    0.99170    1.000
    N16      N        0.58333    0.50500    0.43470    1.000
    N17      N        0.49953    0.45630    0.46810    1.000
    N18      N        0.41113    0.52630    0.53460    1.000
    O1       O        0.89690    0.23990    0.63620    1.000
    O2       O        0.78160    0.27160    0.78150    1.000
    O3       O        0.50890    0.18750    0.79750    1.000
    O4       O        0.44320    0.01850    0.69700    1.000
    O5       O        0.56357    0.39630    0.76010    1.000
    O6       O        0.44827    0.50990    0.72840    1.000
    O7       O        0.17557    0.61000    0.81250    1.000
    O8       O        0.10987    0.67850    0.98150    1.000
    O9       O        0.23023    0.36380    0.60370    1.000
    O10      O        0.11493    0.21850    0.49010    1.000
    O11      O        0.84223    0.20250    0.39000    1.000
    O12      O        0.77653    0.30300    0.32150    1.000
    O13      O        0.39690    0.76010    0.36380    1.000
    O14      O        0.28160    0.72840    0.21850    1.000
    O15      O        0.00890    0.81250    0.20250    1.000
    O16      O        0.94320    0.98150    0.30300    1.000
    O17      O        0.06357    0.60370    0.23990    1.000
    O18      O        0.94827    0.49010    0.27160    1.000
    O19      O        0.67557    0.39000    0.18750    1.000
    O20      O        0.60987    0.32150    0.01850    1.000
    O21      O        0.73023    0.63620    0.39630    1.000
    O22      O        0.61493    0.78150    0.50990    1.000
    O23      O        0.34223    0.79750    0.61000    1.000
    O24      O        0.27653    0.69700    0.67850    1.000
    H1       H        0.13900    0.75810    0.50650    1.000
    H2       H        0.06960    0.66890    0.50520    1.000
    H3       H        0.08250    0.68320    0.41230    1.000
    H4       H        0.99590    0.76240    0.49480    1.000
    N19      N        0.06470    0.71780    0.48340    1.000
    H5       H        0.80567    0.74840    0.24190    1.000
    H6       H        0.73627    0.83630    0.33110    1.000
    H7       H        0.74917    0.72910    0.31680    1.000
    H8       H        0.66257    0.73240    0.23760    1.000
    N20      N        0.73137    0.76560    0.28220    1.000
    H9       H        0.47233    0.49350    0.25160    1.000
    H10      H        0.40293    0.49480    0.16370    1.000
    H11      H        0.41583    0.58770    0.27090    1.000
    H12      H        0.32923    0.50520    0.26760    1.000
    N21      N        0.39803    0.51660    0.23440    1.000
    H13      H        0.63900    0.24190    0.49350    1.000
    H14      H        0.56960    0.33110    0.49480    1.000
    H15      H        0.58250    0.31680    0.58770    1.000
    H16      H        0.49590    0.23760    0.50520    1.000
    N22      N        0.56470    0.28220    0.51660    1.000
    H17      H        0.30567    0.25160    0.75810    1.000
    H18      H        0.23627    0.16370    0.66890    1.000
    H19      H        0.24917    0.27090    0.68320    1.000
    H20      H        0.16257    0.26760    0.76240    1.000
    N23      N        0.23137    0.23440    0.71780    1.000
    H21      H        0.97233    0.50650    0.74840    1.000
    H22      H        0.90293    0.50520    0.83630    1.000
    H23      H        0.91583    0.41230    0.72910    1.000
    H24      H        0.82923    0.49480    0.73240    1.000
    N24      N        0.89803    0.48340    0.76560    1.000
