# CIF file generated by openbabel 3.1.0, see https://openbabel.org
data_I
_chemical_name_common 'OHOMIH_clean'
_cell_length_a 3.4926
_cell_length_b 9.828
_cell_length_c 17.185
_cell_angle_alpha 90
_cell_angle_beta 93.753
_cell_angle_gamma 90
_space_group_name_H-M_alt 'P 1'
_space_group_name_Hall 'P 1'
loop_
    _symmetry_equiv_pos_as_xyz
    x,y,z
loop_
    _atom_site_label
    _atom_site_type_symbol
    _atom_site_fract_x
    _atom_site_fract_y
    _atom_site_fract_z
    _atom_site_occupancy
    Cu1      Cu       0.58112    0.24095    0.72802    1.000
    Cu2      Cu       0.12930    0.45535    0.60664    1.000
    Cu3      Cu       0.08112    0.75905    0.22802    1.000
    Cu4      Cu       0.62930    0.54465    0.10664    1.000
    H1       H        0.61090    0.78300    0.71580    1.000
    H2       H        0.94610    0.54250    0.89700    1.000
    H3       H        0.08800    0.95020    0.91280    1.000
    H4       H        0.11090    0.21700    0.21580    1.000
    H5       H        0.44610    0.45750    0.39700    1.000
    H6       H        0.58800    0.04980    0.41280    1.000
    C1       C        0.83950    0.88710    0.80890    1.000
    C2       C        0.71700    0.77350    0.76660    1.000
    C3       C        0.75200    0.64550    0.80040    1.000
    C4       C        0.91900    0.62900    0.87540    1.000
    C5       C        0.04700    0.74320    0.91820    1.000
    C6       C        0.00530    0.87360    0.88470    1.000
    C7       C        0.77000    0.02520    0.77550    1.000
    C8       C        0.60800    0.52540    0.75260    1.000
    C9       C        0.23900    0.73100    0.99870    1.000
    C10      C        0.33950    0.11290    0.30890    1.000
    C11      C        0.21700    0.22650    0.26660    1.000
    C12      C        0.25200    0.35450    0.30040    1.000
    C13      C        0.41900    0.37100    0.37540    1.000
    C14      C        0.54700    0.25680    0.41820    1.000
    C15      C        0.50530    0.12640    0.38470    1.000
    C16      C        0.27000    0.97480    0.27550    1.000
    C17      C        0.10800    0.47460    0.25260    1.000
    C18      C        0.73900    0.26900    0.49870    1.000
    O1       O        0.58110    0.04020    0.71040    1.000
    O2       O        0.88660    0.13170    0.81220    1.000
    O3       O        0.63020    0.40900    0.78560    1.000
    O4       O        0.13820    0.28780    0.66310    1.000
    O5       O        0.49320    0.54610    0.68330    1.000
    O6       O        0.24890    0.60920    0.02700    1.000
    O7       O        0.37650    0.83180    0.03190    1.000
    O8       O        0.08110    0.95980    0.21040    1.000
    O9       O        0.38660    0.86830    0.31220    1.000
    O10      O        0.13020    0.59100    0.28560    1.000
    O11      O        0.63820    0.71220    0.16310    1.000
    O12      O        0.99320    0.45390    0.18330    1.000
    O13      O        0.74890    0.39080    0.52700    1.000
    O14      O        0.87650    0.16820    0.53190    1.000
