# CIF file generated by openbabel 3.1.0, see https://openbabel.org
data_I
_chemical_name_common 'image0'
_cell_length_a 10.0317
_cell_length_b 10.0317
_cell_length_c 12.8837
_cell_angle_alpha 90
_cell_angle_beta 90
_cell_angle_gamma 90
_space_group_name_H-M_alt 'P 1'
_space_group_name_Hall 'P 1'
loop_
    _symmetry_equiv_pos_as_xyz
    x,y,z
loop_
    _atom_site_label
    _atom_site_type_symbol
    _atom_site_fract_x
    _atom_site_fract_y
    _atom_site_fract_z
    _atom_site_occupancy
    Co1      Co       0.87590    0.12460    0.29780    1.000
    P1       P        0.85200    0.85900    0.17990    1.000
    O1       O        0.73000    0.76840    0.18300    1.000
    O2       O        0.91760    0.84800    0.07620    1.000
    O3       O        0.80910    0.00750    0.19660    1.000
    O4       O        0.88750    0.04810    0.43290    1.000
    O5       O        0.05460    0.18580    0.26640    1.000
    Co2      Co       0.12410    0.87540    0.29780    1.000
    P2       P        0.14800    0.14100    0.17990    1.000
    O6       O        0.27000    0.23160    0.18300    1.000
    O7       O        0.08240    0.15200    0.07620    1.000
    O8       O        0.19090    0.99250    0.19660    1.000
    O9       O        0.11250    0.95190    0.43290    1.000
    O10      O        0.94540    0.81420    0.26640    1.000
    Co3      Co       0.12460    0.12410    0.70220    1.000
    P3       P        0.85900    0.14800    0.82010    1.000
    O11      O        0.76840    0.27000    0.81700    1.000
    O12      O        0.84800    0.08240    0.92380    1.000
    O13      O        0.00750    0.19090    0.80340    1.000
    O14      O        0.04810    0.11250    0.56710    1.000
    O15      O        0.18580    0.94540    0.73360    1.000
    Co4      Co       0.87540    0.87590    0.70220    1.000
    P4       P        0.14100    0.85200    0.82010    1.000
    O16      O        0.23160    0.73000    0.81700    1.000
    O17      O        0.15200    0.91760    0.92380    1.000
    O18      O        0.99250    0.80910    0.80340    1.000
    O19      O        0.95190    0.88750    0.56710    1.000
    O20      O        0.81420    0.05460    0.73360    1.000
    Co5      Co       0.62410    0.62460    0.20220    1.000
    P5       P        0.64800    0.35900    0.32010    1.000
    O21      O        0.77000    0.26840    0.31700    1.000
    O22      O        0.58240    0.34800    0.42380    1.000
    O23      O        0.69090    0.50750    0.30340    1.000
    O24      O        0.61250    0.54810    0.06710    1.000
    O25      O        0.44540    0.68580    0.23360    1.000
    Co6      Co       0.37590    0.37540    0.20220    1.000
    P6       P        0.35200    0.64100    0.32010    1.000
    O26      O        0.23000    0.73160    0.31700    1.000
    O27      O        0.41760    0.65200    0.42380    1.000
    O28      O        0.30910    0.49250    0.30340    1.000
    O29      O        0.38750    0.45190    0.06710    1.000
    O30      O        0.55460    0.31420    0.23360    1.000
    Co7      Co       0.37540    0.62410    0.79780    1.000
    P7       P        0.64100    0.64800    0.67990    1.000
    O31      O        0.73160    0.77000    0.68300    1.000
    O32      O        0.65200    0.58240    0.57620    1.000
    O33      O        0.49250    0.69090    0.69660    1.000
    O34      O        0.45190    0.61250    0.93290    1.000
    O35      O        0.31420    0.44540    0.76640    1.000
    Co8      Co       0.62460    0.37590    0.79780    1.000
    P8       P        0.35900    0.35200    0.67990    1.000
    O36      O        0.26840    0.23000    0.68300    1.000
    O37      O        0.34800    0.41760    0.57620    1.000
    O38      O        0.50750    0.30910    0.69660    1.000
    O39      O        0.54810    0.38750    0.93290    1.000
    O40      O        0.68580    0.55460    0.76640    1.000
    Co9      Co       0.00000    0.00000    0.00000    1.000
    Co10     Co       0.50000    0.50000    0.50000    1.000
    P9       P        0.00000    0.00000    0.50000    1.000
    P10      P        0.50000    0.50000    0.00000    1.000
