# CIF file generated by openbabel 3.1.0, see https://openbabel.org
data_I
_chemical_name_common 'image0'
_cell_length_a 8.742
_cell_length_b 8.729
_cell_length_c 27.415
_cell_angle_alpha 90
_cell_angle_beta 102.193
_cell_angle_gamma 90
_space_group_name_H-M_alt 'P 1'
_space_group_name_Hall 'P 1'
loop_
    _symmetry_equiv_pos_as_xyz
    x,y,z
loop_
    _atom_site_label
    _atom_site_type_symbol
    _atom_site_fract_x
    _atom_site_fract_y
    _atom_site_fract_z
    _atom_site_occupancy
    Tb1      Tb       0.50338    0.56274    0.76666    1.000
    O1       O        0.66300    0.67870    0.84019    1.000
    O2       O        0.57220    0.84190    0.78165    1.000
    C1       C        0.65640    0.81420    0.82479    1.000
    C2       C        0.74220    0.93590    0.85600    1.000
    O3       O        0.49980    0.87000    0.67584    1.000
    O4       O        0.71450    0.12460    0.79096    1.000
    O5       O        0.39850    0.13960    0.80380    1.000
    C3       C        0.81070    0.89940    0.90540    1.000
    C4       C        0.76280    0.08440    0.83815    1.000
    C5       C        0.44050    0.24930    0.83451    1.000
    H1       H        0.79920    0.80060    0.91690    1.000
    C6       C        0.89410    0.00420    0.93738    1.000
    C7       C        0.84400    0.19090    0.87215    1.000
    C8       C        0.41590    0.22750    0.88595    1.000
    C9       C        0.90810    0.15350    0.92052    1.000
    N1       N        0.96250    0.95040    0.98602    1.000
    H2       H        0.85480    0.29060    0.86140    1.000
    C10      C        0.34360    0.09660    0.89978    1.000
    C11      C        0.46350    0.34050    0.92109    1.000
    H3       H        0.96080    0.22730    0.94220    1.000
    C12      C        0.32090    0.08180    0.94768    1.000
    O6       O        0.29560    0.98220    0.86721    1.000
    C13      C        0.43770    0.32600    0.96886    1.000
    H4       H        0.51350    0.42740    0.91250    1.000
    C14      C        0.36750    0.19470    0.98187    1.000
    H5       H        0.27340    0.99410    0.95680    1.000
    H6       H        0.32130    0.00360    0.84190    1.000
    N2       N        0.47490    0.43860    0.00689    1.000
    H7       H        0.35190    0.18340    0.01420    1.000
    Tb2      Tb       0.49662    0.06274    0.73334    1.000
    O7       O        0.33700    0.17870    0.65981    1.000
    O8       O        0.42780    0.34190    0.71835    1.000
    C15      C        0.34360    0.31420    0.67521    1.000
    C16      C        0.25780    0.43590    0.64400    1.000
    O9       O        0.50020    0.37000    0.82416    1.000
    O10      O        0.28550    0.62460    0.70904    1.000
    O11      O        0.60150    0.63960    0.69620    1.000
    C17      C        0.18930    0.39940    0.59460    1.000
    C18      C        0.23720    0.58440    0.66185    1.000
    C19      C        0.55950    0.74930    0.66549    1.000
    H8       H        0.20080    0.30060    0.58310    1.000
    C20      C        0.10590    0.50420    0.56262    1.000
    C21      C        0.15600    0.69090    0.62785    1.000
    C22      C        0.58410    0.72750    0.61405    1.000
    C23      C        0.09190    0.65350    0.57948    1.000
    N3       N        0.03750    0.45040    0.51398    1.000
    H9       H        0.14520    0.79060    0.63860    1.000
    C24      C        0.65640    0.59660    0.60022    1.000
    C25      C        0.53650    0.84050    0.57891    1.000
    H10      H        0.03920    0.72730    0.55780    1.000
    C26      C        0.67910    0.58180    0.55232    1.000
    O12      O        0.70440    0.48220    0.63279    1.000
    C27      C        0.56230    0.82600    0.53114    1.000
    H11      H        0.48650    0.92740    0.58750    1.000
    C28      C        0.63250    0.69470    0.51813    1.000
    H12      H        0.72660    0.49410    0.54320    1.000
    H13      H        0.67870    0.50360    0.65810    1.000
    N4       N        0.52510    0.93860    0.49311    1.000
    H14      H        0.64810    0.68340    0.48580    1.000
    Tb3      Tb       0.49662    0.43726    0.23334    1.000
    O13      O        0.33700    0.32130    0.15981    1.000
    O14      O        0.42780    0.15810    0.21835    1.000
    C29      C        0.34360    0.18580    0.17521    1.000
    C30      C        0.25780    0.06410    0.14400    1.000
    O15      O        0.50020    0.13000    0.32416    1.000
    O16      O        0.28550    0.87540    0.20904    1.000
    O17      O        0.60150    0.86040    0.19620    1.000
    C31      C        0.18930    0.10060    0.09460    1.000
    C32      C        0.23720    0.91560    0.16185    1.000
    C33      C        0.55950    0.75070    0.16549    1.000
    H15      H        0.20080    0.19940    0.08310    1.000
    C34      C        0.10590    0.99580    0.06262    1.000
    C35      C        0.15600    0.80910    0.12785    1.000
    C36      C        0.58410    0.77250    0.11405    1.000
    C37      C        0.09190    0.84650    0.07948    1.000
    N5       N        0.03750    0.04960    0.01398    1.000
    H16      H        0.14520    0.70940    0.13860    1.000
    C38      C        0.65640    0.90340    0.10022    1.000
    C39      C        0.53650    0.65950    0.07891    1.000
    H17      H        0.03920    0.77270    0.05780    1.000
    C40      C        0.67910    0.91820    0.05232    1.000
    O18      O        0.70440    0.01780    0.13279    1.000
    C41      C        0.56230    0.67400    0.03114    1.000
    H18      H        0.48650    0.57260    0.08750    1.000
    C42      C        0.63250    0.80530    0.01813    1.000
    H19      H        0.72660    0.00590    0.04320    1.000
    H20      H        0.67870    0.99640    0.15810    1.000
    N6       N        0.52510    0.56140    0.99311    1.000
    H21      H        0.64810    0.81660    0.98580    1.000
    Tb4      Tb       0.50338    0.93726    0.26666    1.000
    O19      O        0.66300    0.82130    0.34019    1.000
    O20      O        0.57220    0.65810    0.28165    1.000
    C43      C        0.65640    0.68580    0.32479    1.000
    C44      C        0.74220    0.56410    0.35600    1.000
    O21      O        0.49980    0.63000    0.17584    1.000
    O22      O        0.71450    0.37540    0.29096    1.000
    O23      O        0.39850    0.36040    0.30380    1.000
    C45      C        0.81070    0.60060    0.40540    1.000
    C46      C        0.76280    0.41560    0.33815    1.000
    C47      C        0.44050    0.25070    0.33451    1.000
    H22      H        0.79920    0.69940    0.41690    1.000
    C48      C        0.89410    0.49580    0.43738    1.000
    C49      C        0.84400    0.30910    0.37215    1.000
    C50      C        0.41590    0.27250    0.38595    1.000
    C51      C        0.90810    0.34650    0.42052    1.000
    N7       N        0.96250    0.54960    0.48602    1.000
    H23      H        0.85480    0.20940    0.36140    1.000
    C52      C        0.34360    0.40340    0.39978    1.000
    C53      C        0.46350    0.15950    0.42109    1.000
    H24      H        0.96080    0.27270    0.44220    1.000
    C54      C        0.32090    0.41820    0.44768    1.000
    O24      O        0.29560    0.51780    0.36721    1.000
    C55      C        0.43770    0.17400    0.46886    1.000
    H25      H        0.51350    0.07260    0.41250    1.000
    C56      C        0.36750    0.30530    0.48187    1.000
    H26      H        0.27340    0.50590    0.45680    1.000
    H27      H        0.32130    0.49640    0.34190    1.000
    N8       N        0.47490    0.06140    0.50689    1.000
    H28      H        0.35190    0.31660    0.51420    1.000
