# CIF file generated by openbabel 3.1.0, see https://openbabel.org
data_I
_chemical_name_common 'VEYVEC_clean'
_cell_length_a 11.3816
_cell_length_b 15.2214
_cell_length_c 17.8069
_cell_angle_alpha 115.303
_cell_angle_beta 90
_cell_angle_gamma 90
_space_group_name_H-M_alt 'P 1'
_space_group_name_Hall 'P 1'
loop_
    _symmetry_equiv_pos_as_xyz
    x,y,z
loop_
    _atom_site_label
    _atom_site_type_symbol
    _atom_site_fract_x
    _atom_site_fract_y
    _atom_site_fract_z
    _atom_site_occupancy
    Co1      Co       0.79320    0.63899    0.00000    1.000
    Co2      Co       0.20680    0.36101    0.00000    1.000
    Co3      Co       0.50000    0.38095    0.76190    1.000
    Co4      Co       0.50000    0.61905    0.23810    1.000
    H1       H        0.74770    0.58970    0.74620    1.000
    H2       H        0.63180    0.18990    0.70300    1.000
    H3       H        0.63900    0.03620    0.59680    1.000
    H4       H        0.34930    0.09740    0.50380    1.000
    H5       H        0.34830    0.24850    0.61320    1.000
    H6       H        0.25230    0.15650    0.74620    1.000
    H7       H        0.36820    0.51310    0.70300    1.000
    H8       H        0.36100    0.56060    0.59680    1.000
    H9       H        0.65070    0.40640    0.50380    1.000
    H10      H        0.65170    0.36470    0.61320    1.000
    H11      H        0.25230    0.41030    0.25380    1.000
    H12      H        0.36820    0.81010    0.29700    1.000
    H13      H        0.36100    0.96380    0.40320    1.000
    H14      H        0.65070    0.90260    0.49620    1.000
    H15      H        0.65170    0.75150    0.38680    1.000
    H16      H        0.74770    0.84350    0.25380    1.000
    H17      H        0.63180    0.48690    0.29700    1.000
    H18      H        0.63900    0.43940    0.40320    1.000
    H19      H        0.34930    0.59360    0.49620    1.000
    H20      H        0.34830    0.63530    0.38680    1.000
    C1       C        0.82340    0.54030    0.80492    1.000
    C2       C        0.75270    0.36453    0.81238    1.000
    C3       C        0.07760    0.57963    0.79436    1.000
    C4       C        0.91650    0.46668    0.79904    1.000
    C5       C        0.88090    0.37978    0.80016    1.000
    C6       C        0.03630    0.48658    0.79724    1.000
    C7       C        0.57320    0.17176    0.66112    1.000
    C8       C        0.57840    0.07928    0.59716    1.000
    C9       C        0.49820    0.04925    0.53490    1.000
    C10      C        0.41080    0.11477    0.54374    1.000
    C11      C        0.41070    0.20542    0.60944    1.000
    C12      C        0.17660    0.26462    0.80492    1.000
    C13      C        0.24730    0.44785    0.81238    1.000
    C14      C        0.92240    0.21473    0.79436    1.000
    C15      C        0.08350    0.33236    0.79904    1.000
    C16      C        0.11910    0.42038    0.80016    1.000
    C17      C        0.96370    0.31066    0.79724    1.000
    C18      C        0.42680    0.48936    0.66112    1.000
    C19      C        0.42160    0.51788    0.59716    1.000
    C20      C        0.50180    0.48565    0.53490    1.000
    C21      C        0.58920    0.42897    0.54374    1.000
    C22      C        0.58930    0.40402    0.60944    1.000
    C23      C        0.17660    0.45970    0.19508    1.000
    C24      C        0.24730    0.63547    0.18762    1.000
    C25      C        0.92240    0.42037    0.20564    1.000
    C26      C        0.08350    0.53332    0.20096    1.000
    C27      C        0.11910    0.62022    0.19984    1.000
    C28      C        0.96370    0.51342    0.20276    1.000
    C29      C        0.42680    0.82824    0.33888    1.000
    C30      C        0.42160    0.92072    0.40284    1.000
    C31      C        0.50180    0.95075    0.46510    1.000
    C32      C        0.58920    0.88523    0.45626    1.000
    C33      C        0.58930    0.79458    0.39056    1.000
    C34      C        0.82340    0.73538    0.19508    1.000
    C35      C        0.75270    0.55215    0.18762    1.000
    C36      C        0.07760    0.78527    0.20564    1.000
    C37      C        0.91650    0.66764    0.20096    1.000
    C38      C        0.88090    0.57962    0.19984    1.000
    C39      C        0.03630    0.68934    0.20276    1.000
    C40      C        0.57320    0.51064    0.33888    1.000
    C41      C        0.57840    0.48212    0.40284    1.000
    C42      C        0.49820    0.51435    0.46510    1.000
    C43      C        0.41080    0.57103    0.45626    1.000
    C44      C        0.41070    0.59598    0.39056    1.000
    N1       N        0.49250    0.23555    0.66734    1.000
    N2       N        0.50750    0.43179    0.66734    1.000
    N3       N        0.50750    0.76445    0.33266    1.000
    N4       N        0.49250    0.56821    0.33266    1.000
    O1       O        0.77399    0.58829    0.87172    1.000
    O2       O        0.79867    0.54637    0.73704    1.000
    O3       O        0.68155    0.37468    0.76280    1.000
    O4       O        0.72744    0.34693    0.87338    1.000
    O5       O        0.15541    0.56976    0.74076    1.000
    O6       O        0.03169    0.65713    0.84402    1.000
    O7       O        0.22601    0.28343    0.87172    1.000
    O8       O        0.20133    0.19067    0.73704    1.000
    O9       O        0.31845    0.38812    0.76280    1.000
    O10      O        0.27256    0.52645    0.87338    1.000
    O11      O        0.84459    0.17100    0.74076    1.000
    O12      O        0.96831    0.18689    0.84402    1.000
    O13      O        0.22601    0.41171    0.12828    1.000
    O14      O        0.20133    0.45363    0.26296    1.000
    O15      O        0.31845    0.62532    0.23720    1.000
    O16      O        0.27256    0.65307    0.12662    1.000
    O17      O        0.84459    0.43024    0.25924    1.000
    O18      O        0.96831    0.34287    0.15598    1.000
    O19      O        0.77399    0.71657    0.12828    1.000
    O20      O        0.79867    0.80933    0.26296    1.000
    O21      O        0.68155    0.61188    0.23720    1.000
    O22      O        0.72744    0.47355    0.12662    1.000
    O23      O        0.15541    0.82900    0.25924    1.000
    O24      O        0.03169    0.81311    0.15598    1.000
    Co5      Co       0.29320    0.86101    0.00000    1.000
    Co6      Co       0.70680    0.13899    0.00000    1.000
    Co7      Co       0.00000    0.11905    0.23810    1.000
    Co8      Co       0.00000    0.88095    0.76190    1.000
    H21      H        0.24770    0.91030    0.25380    1.000
    H22      H        0.13180    0.31010    0.29700    1.000
    H23      H        0.13900    0.46380    0.40320    1.000
    H24      H        0.84930    0.40260    0.49620    1.000
    H25      H        0.84830    0.25150    0.38680    1.000
    H26      H        0.75230    0.34350    0.25380    1.000
    H27      H        0.86820    0.98690    0.29700    1.000
    H28      H        0.86100    0.93940    0.40320    1.000
    H29      H        0.15070    0.09360    0.49620    1.000
    H30      H        0.15170    0.13530    0.38680    1.000
    H31      H        0.75230    0.08970    0.74620    1.000
    H32      H        0.86820    0.68990    0.70300    1.000
    H33      H        0.86100    0.53620    0.59680    1.000
    H34      H        0.15070    0.59740    0.50380    1.000
    H35      H        0.15170    0.74850    0.61320    1.000
    H36      H        0.24770    0.65650    0.74620    1.000
    H37      H        0.13180    0.01310    0.70300    1.000
    H38      H        0.13900    0.06060    0.59680    1.000
    H39      H        0.84930    0.90640    0.50380    1.000
    H40      H        0.84830    0.86470    0.61320    1.000
    C45      C        0.32340    0.95970    0.19508    1.000
    C46      C        0.25270    0.13547    0.18762    1.000
    C47      C        0.57760    0.92037    0.20564    1.000
    C48      C        0.41650    0.03332    0.20096    1.000
    C49      C        0.38090    0.12022    0.19984    1.000
    C50      C        0.53630    0.01342    0.20276    1.000
    C51      C        0.07320    0.32824    0.33888    1.000
    C52      C        0.07840    0.42072    0.40284    1.000
    C53      C        0.99820    0.45075    0.46510    1.000
    C54      C        0.91080    0.38523    0.45626    1.000
    C55      C        0.91070    0.29458    0.39056    1.000
    C56      C        0.67660    0.23538    0.19508    1.000
    C57      C        0.74730    0.05215    0.18762    1.000
    C58      C        0.42240    0.28527    0.20564    1.000
    C59      C        0.58350    0.16764    0.20096    1.000
    C60      C        0.61910    0.07962    0.19984    1.000
    C61      C        0.46370    0.18934    0.20276    1.000
    C62      C        0.92680    0.01064    0.33888    1.000
    C63      C        0.92160    0.98212    0.40284    1.000
    C64      C        0.00180    0.01435    0.46510    1.000
    C65      C        0.08920    0.07103    0.45626    1.000
    C66      C        0.08930    0.09598    0.39056    1.000
    C67      C        0.67660    0.04030    0.80492    1.000
    C68      C        0.74730    0.86453    0.81238    1.000
    C69      C        0.42240    0.07963    0.79436    1.000
    C70      C        0.58350    0.96668    0.79904    1.000
    C71      C        0.61910    0.87978    0.80016    1.000
    C72      C        0.46370    0.98658    0.79724    1.000
    C73      C        0.92680    0.67176    0.66112    1.000
    C74      C        0.92160    0.57928    0.59716    1.000
    C75      C        0.00180    0.54925    0.53490    1.000
    C76      C        0.08920    0.61477    0.54374    1.000
    C77      C        0.08930    0.70542    0.60944    1.000
    C78      C        0.32340    0.76462    0.80492    1.000
    C79      C        0.25270    0.94785    0.81238    1.000
    C80      C        0.57760    0.71473    0.79436    1.000
    C81      C        0.41650    0.83236    0.79904    1.000
    C82      C        0.38090    0.92038    0.80016    1.000
    C83      C        0.53630    0.81066    0.79724    1.000
    C84      C        0.07320    0.98936    0.66112    1.000
    C85      C        0.07840    0.01788    0.59716    1.000
    C86      C        0.99820    0.98565    0.53490    1.000
    C87      C        0.91080    0.92897    0.54374    1.000
    C88      C        0.91070    0.90402    0.60944    1.000
    N5       N        0.99250    0.26445    0.33266    1.000
    N6       N        0.00750    0.06821    0.33266    1.000
    N7       N        0.00750    0.73555    0.66734    1.000
    N8       N        0.99250    0.93179    0.66734    1.000
    O25      O        0.27399    0.91171    0.12828    1.000
    O26      O        0.29867    0.95363    0.26296    1.000
    O27      O        0.18155    0.12532    0.23720    1.000
    O28      O        0.22744    0.15307    0.12662    1.000
    O29      O        0.65541    0.93024    0.25924    1.000
    O30      O        0.53169    0.84287    0.15598    1.000
    O31      O        0.72601    0.21657    0.12828    1.000
    O32      O        0.70133    0.30933    0.26296    1.000
    O33      O        0.81845    0.11188    0.23720    1.000
    O34      O        0.77256    0.97355    0.12662    1.000
    O35      O        0.34459    0.32900    0.25924    1.000
    O36      O        0.46831    0.31311    0.15598    1.000
    O37      O        0.72601    0.08829    0.87172    1.000
    O38      O        0.70133    0.04637    0.73704    1.000
    O39      O        0.81845    0.87468    0.76280    1.000
    O40      O        0.77256    0.84693    0.87338    1.000
    O41      O        0.34459    0.06976    0.74076    1.000
    O42      O        0.46831    0.15713    0.84402    1.000
    O43      O        0.27399    0.78343    0.87172    1.000
    O44      O        0.29867    0.69067    0.73704    1.000
    O45      O        0.18155    0.88812    0.76280    1.000
    O46      O        0.22744    0.02645    0.87338    1.000
    O47      O        0.65541    0.67100    0.74076    1.000
    O48      O        0.53169    0.68689    0.84402    1.000
