# CIF file generated by openbabel 3.1.0, see https://openbabel.org
data_I
_chemical_name_common 'GAJVAQ_clean'
_cell_length_a 12.8042
_cell_length_b 12.8042
_cell_length_c 34.635
_cell_angle_alpha 82.4254
_cell_angle_beta 82.4254
_cell_angle_gamma 63.9184
_space_group_name_H-M_alt 'P 1'
_space_group_name_Hall 'P 1'
loop_
    _symmetry_equiv_pos_as_xyz
    x,y,z
loop_
    _atom_site_label
    _atom_site_type_symbol
    _atom_site_fract_x
    _atom_site_fract_y
    _atom_site_fract_z
    _atom_site_occupancy
    Er1      Er       0.86245    0.70319    0.05903    1.000
    Er2      Er       0.84844    0.63222    0.18384    1.000
    Er3      Er       0.70319    0.86245    0.55903    1.000
    Er4      Er       0.63222    0.84844    0.68384    1.000
    H1       H        0.61290    0.08730    0.08370    1.000
    H2       H        0.45280    0.11600    0.20930    1.000
    H3       H        0.60000    0.94260    0.19100    1.000
    H4       H        0.40510    0.56050    0.06710    1.000
    H5       H        0.54570    0.63090    0.06370    1.000
    H6       H        0.60160    0.50180    0.17390    1.000
    H7       H        0.11530    0.82730    0.06970    1.000
    H8       H        0.25310    0.89350    0.06920    1.000
    H9       H        0.16640    0.70000    0.17950    1.000
    H10      H        0.25340    0.08320    0.15240    1.000
    H11      H        0.10190    0.26290    0.16470    1.000
    H12      H        0.13190    0.36310    0.05170    1.000
    H13      H        0.82690    0.05030    0.78750    1.000
    H14      H        0.00570    0.97890    0.81290    1.000
    H15      H        0.92910    0.74430    0.74280    1.000
    H16      H        0.11060    0.98680    0.90530    1.000
    H17      H        0.02130    0.95490    0.96440    1.000
    H18      H        0.11400    0.62860    0.93850    1.000
    H19      H        0.08730    0.61290    0.58370    1.000
    H20      H        0.11600    0.45280    0.70930    1.000
    H21      H        0.94260    0.60000    0.69100    1.000
    H22      H        0.56050    0.40510    0.56710    1.000
    H23      H        0.63090    0.54570    0.56370    1.000
    H24      H        0.50180    0.60160    0.67390    1.000
    H25      H        0.82730    0.11530    0.56970    1.000
    H26      H        0.89350    0.25310    0.56920    1.000
    H27      H        0.70000    0.16640    0.67950    1.000
    H28      H        0.08320    0.25340    0.65240    1.000
    H29      H        0.26290    0.10190    0.66470    1.000
    H30      H        0.36310    0.13190    0.55170    1.000
    H31      H        0.05030    0.82690    0.28750    1.000
    H32      H        0.97890    0.00570    0.31290    1.000
    H33      H        0.74430    0.92910    0.24280    1.000
    H34      H        0.98680    0.11060    0.40530    1.000
    H35      H        0.95490    0.02130    0.46440    1.000
    H36      H        0.62860    0.11400    0.43850    1.000
    C1       C        0.71780    0.88380    0.12170    1.000
    C2       C        0.62250    0.99630    0.13454    1.000
    C3       C        0.58030    0.09310    0.10941    1.000
    C4       C        0.45140    0.20100    0.15600    1.000
    C5       C        0.48680    0.10880    0.18380    1.000
    C6       C        0.57330    0.00670    0.17270    1.000
    C7       C        0.42460    0.49580    0.12260    1.000
    C8       C        0.44580    0.55060    0.08860    1.000
    C9       C        0.53000    0.59180    0.08670    1.000
    C10      C        0.59060    0.57480    0.11870    1.000
    C11      C        0.56100    0.51560    0.15200    1.000
    C12      C        0.68330    0.61530    0.11990    1.000
    C13      C        0.03060    0.71480    0.12500    1.000
    C14      C        0.12480    0.75740    0.12450    1.000
    C15      C        0.15370    0.81450    0.09210    1.000
    C16      C        0.23570    0.85290    0.09150    1.000
    C17      C        0.29250    0.83150    0.12390    1.000
    C18      C        0.18490    0.73870    0.15700    1.000
    C19      C        0.27420    0.12240    0.09420    1.000
    C20      C        0.22600    0.14160    0.13220    1.000
    C21      C        0.13690    0.24810    0.13950    1.000
    C22      C        0.09950    0.33410    0.10878    1.000
    C23      C        0.15530    0.30610    0.07240    1.000
    C24      C        0.00490    0.45110    0.11650    1.000
    C25      C        0.74110    0.94310    0.74690    1.000
    C26      C        0.85680    0.90400    0.76217    1.000
    C27      C        0.88240    0.97480    0.78350    1.000
    C28      C        0.98910    0.93290    0.79840    1.000
    C29      C        0.07150    0.82070    0.79130    1.000
    C30      C        0.94390    0.79270    0.75680    1.000
    C31      C        0.15770    0.83070    0.88790    1.000
    C32      C        0.10880    0.91500    0.91240    1.000
    C33      C        0.05670    0.89590    0.94750    1.000
    C34      C        0.05670    0.78690    0.95800    1.000
    C35      C        0.11170    0.70230    0.93190    1.000
    C36      C        0.99490    0.76010    0.99530    1.000
    C37      C        0.88380    0.71780    0.62170    1.000
    C38      C        0.99630    0.62250    0.63454    1.000
    C39      C        0.09310    0.58030    0.60941    1.000
    C40      C        0.20100    0.45140    0.65600    1.000
    C41      C        0.10880    0.48680    0.68380    1.000
    C42      C        0.00670    0.57330    0.67270    1.000
    C43      C        0.49580    0.42460    0.62260    1.000
    C44      C        0.55060    0.44580    0.58860    1.000
    C45      C        0.59180    0.53000    0.58670    1.000
    C46      C        0.57480    0.59060    0.61870    1.000
    C47      C        0.51560    0.56100    0.65200    1.000
    C48      C        0.61530    0.68330    0.61990    1.000
    C49      C        0.71480    0.03060    0.62500    1.000
    C50      C        0.75740    0.12480    0.62450    1.000
    C51      C        0.81450    0.15370    0.59210    1.000
    C52      C        0.85290    0.23570    0.59150    1.000
    C53      C        0.83150    0.29250    0.62390    1.000
    C54      C        0.73870    0.18490    0.65700    1.000
    C55      C        0.12240    0.27420    0.59420    1.000
    C56      C        0.14160    0.22600    0.63220    1.000
    C57      C        0.24810    0.13690    0.63950    1.000
    C58      C        0.33410    0.09950    0.60878    1.000
    C59      C        0.30610    0.15530    0.57240    1.000
    C60      C        0.45110    0.00490    0.61650    1.000
    C61      C        0.94310    0.74110    0.24690    1.000
    C62      C        0.90400    0.85680    0.26217    1.000
    C63      C        0.97480    0.88240    0.28350    1.000
    C64      C        0.93290    0.98910    0.29840    1.000
    C65      C        0.82070    0.07150    0.29130    1.000
    C66      C        0.79270    0.94390    0.25680    1.000
    C67      C        0.83070    0.15770    0.38790    1.000
    C68      C        0.91500    0.10880    0.41240    1.000
    C69      C        0.89590    0.05670    0.44750    1.000
    C70      C        0.78690    0.05670    0.45800    1.000
    C71      C        0.70230    0.11170    0.43190    1.000
    C72      C        0.76010    0.99490    0.49530    1.000
    S1       S        0.33790    0.33326    0.17229    1.000
    S2       S        0.31041    0.44815    0.12470    1.000
    S3       S        0.40611    0.87561    0.12662    1.000
    S4       S        0.39181    0.99035    0.07954    1.000
    S5       S        0.22250    0.86176    0.84115    1.000
    S6       S        0.21343    0.75045    0.80697    1.000
    S7       S        0.33326    0.33790    0.67229    1.000
    S8       S        0.44815    0.31041    0.62470    1.000
    S9       S        0.87561    0.40611    0.62662    1.000
    S10      S        0.99035    0.39181    0.57954    1.000
    S11      S        0.86176    0.22250    0.34115    1.000
    S12      S        0.75045    0.21343    0.30697    1.000
    N1       N        0.49490    0.19650    0.11868    1.000
    N2       N        0.47950    0.47810    0.15456    1.000
    N3       N        0.24070    0.20230    0.06501    1.000
    N4       N        0.26900    0.77460    0.15730    1.000
    N5       N        0.04920    0.75140    0.77108    1.000
    N6       N        0.16370    0.72490    0.89616    1.000
    N7       N        0.19650    0.49490    0.61868    1.000
    N8       N        0.47810    0.47950    0.65456    1.000
    N9       N        0.20230    0.24070    0.56501    1.000
    N10      N        0.77460    0.26900    0.65730    1.000
    N11      N        0.75140    0.04920    0.27108    1.000
    N12      N        0.72490    0.16370    0.39616    1.000
    O1       O        0.76460    0.80380    0.14736    1.000
    O2       O        0.74400    0.87520    0.08567    1.000
    O3       O        0.72090    0.60410    0.15189    1.000
    O4       O        0.71490    0.65730    0.08843    1.000
    O5       O        0.00120    0.67440    0.15670    1.000
    O6       O        0.98910    0.72690    0.09300    1.000
    O7       O        0.96780    0.47280    0.15048    1.000
    O8       O        0.96970    0.52150    0.08655    1.000
    O9       O        0.66730    0.04650    0.74988    1.000
    O10      O        0.72480    0.86760    0.73247    1.000
    O11      O        0.92460    0.84220    0.01488    1.000
    O12      O        0.01210    0.65770    0.00653    1.000
    O13      O        0.80380    0.76460    0.64736    1.000
    O14      O        0.87520    0.74400    0.58567    1.000
    O15      O        0.60410    0.72090    0.65189    1.000
    O16      O        0.65730    0.71490    0.58843    1.000
    O17      O        0.67440    0.00120    0.65670    1.000
    O18      O        0.72690    0.98910    0.59300    1.000
    O19      O        0.47280    0.96780    0.65048    1.000
    O20      O        0.52150    0.96970    0.58655    1.000
    O21      O        0.04650    0.66730    0.24988    1.000
    O22      O        0.86760    0.72480    0.23247    1.000
    O23      O        0.84220    0.92460    0.51488    1.000
    O24      O        0.65770    0.01210    0.50653    1.000
    Er5      Er       0.29681    0.13755    0.44097    1.000
    Er6      Er       0.36778    0.15156    0.31616    1.000
    Er7      Er       0.13755    0.29681    0.94097    1.000
    Er8      Er       0.15156    0.36778    0.81616    1.000
    H37      H        0.91270    0.38710    0.41630    1.000
    H38      H        0.88400    0.54720    0.29070    1.000
    H39      H        0.05740    0.40000    0.30900    1.000
    H40      H        0.43950    0.59490    0.43290    1.000
    H41      H        0.36910    0.45430    0.43630    1.000
    H42      H        0.49820    0.39840    0.32610    1.000
    H43      H        0.17270    0.88470    0.43030    1.000
    H44      H        0.10650    0.74690    0.43080    1.000
    H45      H        0.30000    0.83360    0.32050    1.000
    H46      H        0.91680    0.74660    0.34760    1.000
    H47      H        0.73710    0.89810    0.33530    1.000
    H48      H        0.63690    0.86810    0.44830    1.000
    H49      H        0.94970    0.17310    0.71250    1.000
    H50      H        0.02110    0.99430    0.68710    1.000
    H51      H        0.25570    0.07090    0.75720    1.000
    H52      H        0.01320    0.88940    0.59470    1.000
    H53      H        0.04510    0.97870    0.53560    1.000
    H54      H        0.37140    0.88600    0.56150    1.000
    H55      H        0.38710    0.91270    0.91630    1.000
    H56      H        0.54720    0.88400    0.79070    1.000
    H57      H        0.40000    0.05740    0.80900    1.000
    H58      H        0.59490    0.43950    0.93290    1.000
    H59      H        0.45430    0.36910    0.93630    1.000
    H60      H        0.39840    0.49820    0.82610    1.000
    H61      H        0.88470    0.17270    0.93030    1.000
    H62      H        0.74690    0.10650    0.93080    1.000
    H63      H        0.83360    0.30000    0.82050    1.000
    H64      H        0.74660    0.91680    0.84760    1.000
    H65      H        0.89810    0.73710    0.83530    1.000
    H66      H        0.86810    0.63690    0.94830    1.000
    H67      H        0.17310    0.94970    0.21250    1.000
    H68      H        0.99430    0.02110    0.18710    1.000
    H69      H        0.07090    0.25570    0.25720    1.000
    H70      H        0.88940    0.01320    0.09470    1.000
    H71      H        0.97870    0.04510    0.03560    1.000
    H72      H        0.88600    0.37140    0.06150    1.000
    C73      C        0.11620    0.28220    0.37830    1.000
    C74      C        0.00370    0.37750    0.36546    1.000
    C75      C        0.90690    0.41970    0.39059    1.000
    C76      C        0.79900    0.54860    0.34400    1.000
    C77      C        0.89120    0.51320    0.31620    1.000
    C78      C        0.99330    0.42670    0.32730    1.000
    C79      C        0.50420    0.57540    0.37740    1.000
    C80      C        0.44940    0.55420    0.41140    1.000
    C81      C        0.40820    0.47000    0.41330    1.000
    C82      C        0.42520    0.40940    0.38130    1.000
    C83      C        0.48440    0.43900    0.34800    1.000
    C84      C        0.38470    0.31670    0.38010    1.000
    C85      C        0.28520    0.96940    0.37500    1.000
    C86      C        0.24260    0.87520    0.37550    1.000
    C87      C        0.18550    0.84630    0.40790    1.000
    C88      C        0.14710    0.76430    0.40850    1.000
    C89      C        0.16850    0.70750    0.37610    1.000
    C90      C        0.26130    0.81510    0.34300    1.000
    C91      C        0.87760    0.72580    0.40580    1.000
    C92      C        0.85840    0.77400    0.36780    1.000
    C93      C        0.75190    0.86310    0.36050    1.000
    C94      C        0.66590    0.90050    0.39122    1.000
    C95      C        0.69390    0.84470    0.42760    1.000
    C96      C        0.54890    0.99510    0.38350    1.000
    C97      C        0.05690    0.25890    0.75310    1.000
    C98      C        0.09600    0.14320    0.73783    1.000
    C99      C        0.02520    0.11760    0.71650    1.000
    C100     C        0.06710    0.01090    0.70160    1.000
    C101     C        0.17930    0.92850    0.70870    1.000
    C102     C        0.20730    0.05610    0.74320    1.000
    C103     C        0.16930    0.84230    0.61210    1.000
    C104     C        0.08500    0.89120    0.58760    1.000
    C105     C        0.10410    0.94330    0.55250    1.000
    C106     C        0.21310    0.94330    0.54200    1.000
    C107     C        0.29770    0.88830    0.56810    1.000
    C108     C        0.23990    0.00510    0.50470    1.000
    C109     C        0.28220    0.11620    0.87830    1.000
    C110     C        0.37750    0.00370    0.86546    1.000
    C111     C        0.41970    0.90690    0.89059    1.000
    C112     C        0.54860    0.79900    0.84400    1.000
    C113     C        0.51320    0.89120    0.81620    1.000
    C114     C        0.42670    0.99330    0.82730    1.000
    C115     C        0.57540    0.50420    0.87740    1.000
    C116     C        0.55420    0.44940    0.91140    1.000
    C117     C        0.47000    0.40820    0.91330    1.000
    C118     C        0.40940    0.42520    0.88130    1.000
    C119     C        0.43900    0.48440    0.84800    1.000
    C120     C        0.31670    0.38470    0.88010    1.000
    C121     C        0.96940    0.28520    0.87500    1.000
    C122     C        0.87520    0.24260    0.87550    1.000
    C123     C        0.84630    0.18550    0.90790    1.000
    C124     C        0.76430    0.14710    0.90850    1.000
    C125     C        0.70750    0.16850    0.87610    1.000
    C126     C        0.81510    0.26130    0.84300    1.000
    C127     C        0.72580    0.87760    0.90580    1.000
    C128     C        0.77400    0.85840    0.86780    1.000
    C129     C        0.86310    0.75190    0.86050    1.000
    C130     C        0.90050    0.66590    0.89122    1.000
    C131     C        0.84470    0.69390    0.92760    1.000
    C132     C        0.99510    0.54890    0.88350    1.000
    C133     C        0.25890    0.05690    0.25310    1.000
    C134     C        0.14320    0.09600    0.23783    1.000
    C135     C        0.11760    0.02520    0.21650    1.000
    C136     C        0.01090    0.06710    0.20160    1.000
    C137     C        0.92850    0.17930    0.20870    1.000
    C138     C        0.05610    0.20730    0.24320    1.000
    C139     C        0.84230    0.16930    0.11210    1.000
    C140     C        0.89120    0.08500    0.08760    1.000
    C141     C        0.94330    0.10410    0.05250    1.000
    C142     C        0.94330    0.21310    0.04200    1.000
    C143     C        0.88830    0.29770    0.06810    1.000
    C144     C        0.00510    0.23990    0.00470    1.000
    S13      S        0.66674    0.66210    0.32771    1.000
    S14      S        0.55185    0.68959    0.37530    1.000
    S15      S        0.12439    0.59389    0.37338    1.000
    S16      S        0.00965    0.60819    0.42046    1.000
    S17      S        0.13824    0.77750    0.65885    1.000
    S18      S        0.24955    0.78657    0.69303    1.000
    S19      S        0.66210    0.66674    0.82771    1.000
    S20      S        0.68959    0.55185    0.87530    1.000
    S21      S        0.59389    0.12439    0.87338    1.000
    S22      S        0.60819    0.00965    0.92046    1.000
    S23      S        0.77750    0.13824    0.15885    1.000
    S24      S        0.78657    0.24955    0.19303    1.000
    N13      N        0.80350    0.50510    0.38132    1.000
    N14      N        0.52190    0.52050    0.34544    1.000
    N15      N        0.79770    0.75930    0.43499    1.000
    N16      N        0.22540    0.73100    0.34270    1.000
    N17      N        0.24860    0.95080    0.72892    1.000
    N18      N        0.27510    0.83630    0.60384    1.000
    N19      N        0.50510    0.80350    0.88132    1.000
    N20      N        0.52050    0.52190    0.84544    1.000
    N21      N        0.75930    0.79770    0.93499    1.000
    N22      N        0.73100    0.22540    0.84270    1.000
    N23      N        0.95080    0.24860    0.22892    1.000
    N24      N        0.83630    0.27510    0.10384    1.000
    O25      O        0.19620    0.23540    0.35264    1.000
    O26      O        0.12480    0.25600    0.41433    1.000
    O27      O        0.39590    0.27910    0.34811    1.000
    O28      O        0.34270    0.28510    0.41157    1.000
    O29      O        0.32560    0.99880    0.34330    1.000
    O30      O        0.27310    0.01090    0.40700    1.000
    O31      O        0.52720    0.03220    0.34952    1.000
    O32      O        0.47850    0.03030    0.41345    1.000
    O33      O        0.95350    0.33270    0.75012    1.000
    O34      O        0.13240    0.27520    0.76753    1.000
    O35      O        0.15780    0.07540    0.48512    1.000
    O36      O        0.34230    0.98790    0.49347    1.000
    O37      O        0.23540    0.19620    0.85264    1.000
    O38      O        0.25600    0.12480    0.91433    1.000
    O39      O        0.27910    0.39590    0.84811    1.000
    O40      O        0.28510    0.34270    0.91157    1.000
    O41      O        0.99880    0.32560    0.84330    1.000
    O42      O        0.01090    0.27310    0.90700    1.000
    O43      O        0.03220    0.52720    0.84952    1.000
    O44      O        0.03030    0.47850    0.91345    1.000
    O45      O        0.33270    0.95350    0.25012    1.000
    O46      O        0.27520    0.13240    0.26753    1.000
    O47      O        0.07540    0.15780    0.98512    1.000
    O48      O        0.98790    0.34230    0.99347    1.000
