# CIF file generated by openbabel 3.1.0, see https://openbabel.org
data_I
_chemical_name_common 'cg500192d_si_002_clean'
_cell_length_a 10.0841
_cell_length_b 30.4643
_cell_length_c 30.4643
_cell_angle_alpha 120
_cell_angle_beta 90
_cell_angle_gamma 90
_space_group_name_H-M_alt 'P 1'
_space_group_name_Hall 'P 1'
loop_
    _symmetry_equiv_pos_as_xyz
    x,y,z
loop_
    _atom_site_label
    _atom_site_type_symbol
    _atom_site_fract_x
    _atom_site_fract_y
    _atom_site_fract_z
    _atom_site_occupancy
    Cd1      Cd       0.69465    0.27222    0.16468    1.000
    Cd2      Cd       0.03870    0.20085    0.36535    1.000
    Cd3      Cd       0.69465    0.89246    0.72778    1.000
    Cd4      Cd       0.69489    0.30637    0.19996    1.000
    Cd5      Cd       0.03870    0.63465    0.83550    1.000
    Cd6      Cd       0.30511    0.10641    0.30637    1.000
    Cd7      Cd       0.30535    0.10754    0.27222    1.000
    Cd8      Cd       0.02480    0.63457    0.81320    1.000
    Cd9      Cd       0.69489    0.80004    0.10641    1.000
    Cd10     Cd       0.51250    0.33333    0.66666    1.000
    Cd11     Cd       0.30511    0.69363    0.80004    1.000
    Cd12     Cd       0.03870    0.16450    0.79915    1.000
    Cd13     Cd       0.43300    0.33333    0.66666    1.000
    Cd14     Cd       0.97520    0.36543    0.18680    1.000
    Cd15     Cd       0.30535    0.72778    0.83532    1.000
    Cd16     Cd       0.02480    0.17863    0.36543    1.000
    Cd17     Cd       0.02480    0.18680    0.82137    1.000
    Cd18     Cd       0.69465    0.83532    0.10754    1.000
    Cd19     Cd       0.96130    0.83550    0.20085    1.000
    Cd20     Cd       0.48750    0.66667    0.33334    1.000
    Cd21     Cd       0.97520    0.82137    0.63457    1.000
    Cd22     Cd       0.97520    0.81320    0.17863    1.000
    Cd23     Cd       0.96130    0.79915    0.63465    1.000
    Cd24     Cd       0.96130    0.36535    0.16450    1.000
    Cd25     Cd       0.30511    0.19996    0.89359    1.000
    Cd26     Cd       0.69489    0.89359    0.69363    1.000
    Cd27     Cd       0.56700    0.66667    0.33334    1.000
    Cd28     Cd       0.30535    0.16468    0.89246    1.000
    H1       H        0.21250    0.80850    0.09990    1.000
    H2       H        0.77420    0.10660    0.30740    1.000
    H3       H        0.66260    0.50820    0.24140    1.000
    H4       H        0.72220    0.23190    0.72720    1.000
    H5       H        0.00100    0.80020    0.77420    1.000
    H6       H        0.22580    0.30740    0.20080    1.000
    H7       H        0.22580    0.79920    0.10660    1.000
    H8       H        0.66260    0.75860    0.26680    1.000
    H9       H        0.78750    0.09990    0.29140    1.000
    H10      H        0.00740    0.01910    0.73050    1.000
    H11      H        0.39100    0.74260    0.96740    1.000
    H12      H        0.78750    0.19150    0.90010    1.000
    H13      H        0.99900    0.19980    0.22580    1.000
    H14      H        0.33740    0.24140    0.73320    1.000
    H15      H        0.66400    0.76700    0.50260    1.000
    H16      H        0.33600    0.26440    0.76700    1.000
    H17      H        0.72220    0.27280    0.50470    1.000
    H18      H        0.55990    0.19850    0.82870    1.000
    H19      H        0.39990    0.03370    0.79730    1.000
    H20      H        0.27780    0.50470    0.23190    1.000
    H21      H        0.55990    0.63020    0.80150    1.000
    H22      H        0.21250    0.29140    0.19150    1.000
    H23      H        0.60900    0.25740    0.03260    1.000
    H24      H        0.27780    0.72720    0.49530    1.000
    H25      H        0.99260    0.73050    0.71140    1.000
    H26      H        0.46280    0.80990    0.18250    1.000
    H27      H        0.00740    0.26950    0.28860    1.000
    H28      H        0.55990    0.17130    0.36980    1.000
    H29      H        0.60900    0.96740    0.22480    1.000
    H30      H        0.33600    0.23300    0.49740    1.000
    H31      H        0.66400    0.49740    0.26440    1.000
    H32      H        0.27780    0.76810    0.27280    1.000
    H33      H        0.53720    0.19010    0.81750    1.000
    H34      H        0.77420    0.69260    0.79920    1.000
    H35      H        0.60010    0.79730    0.76360    1.000
    H36      H        0.99900    0.02600    0.80020    1.000
    H37      H        0.44010    0.80150    0.17130    1.000
    H38      H        0.72220    0.49530    0.76810    1.000
    H39      H        0.39990    0.20270    0.23640    1.000
    H40      H        0.39100    0.22480    0.25740    1.000
    H41      H        0.66400    0.73560    0.23300    1.000
    H42      H        0.46280    0.37260    0.19010    1.000
    H43      H        0.44010    0.82870    0.63020    1.000
    H44      H        0.00740    0.71140    0.98090    1.000
    H45      H        0.00100    0.22580    0.02600    1.000
    H46      H        0.46280    0.81750    0.62740    1.000
    H47      H        0.77420    0.20080    0.89340    1.000
    H48      H        0.60010    0.23640    0.03370    1.000
    H49      H        0.22580    0.89340    0.69260    1.000
    H50      H        0.53720    0.18250    0.37260    1.000
    H51      H        0.60900    0.77520    0.74260    1.000
    H52      H        0.66260    0.73320    0.49180    1.000
    H53      H        0.78750    0.70860    0.80850    1.000
    H54      H        0.33600    0.50260    0.73560    1.000
    H55      H        0.00100    0.97400    0.19980    1.000
    H56      H        0.44010    0.36980    0.19850    1.000
    H57      H        0.99260    0.98090    0.26950    1.000
    H58      H        0.33740    0.26680    0.50820    1.000
    H59      H        0.60010    0.96630    0.20270    1.000
    H60      H        0.99260    0.28860    0.01910    1.000
    H61      H        0.39100    0.03260    0.77520    1.000
    H62      H        0.21250    0.90010    0.70860    1.000
    H63      H        0.99900    0.77420    0.97400    1.000
    H64      H        0.39990    0.76360    0.96630    1.000
    H65      H        0.33740    0.49180    0.75860    1.000
    H66      H        0.53720    0.62740    0.80990    1.000
    C1       C        0.80250    0.75670    0.72250    1.000
    C2       C        0.55160    0.59470    0.78800    1.000
    C3       C        0.97590    0.31210    0.23160    1.000
    C4       C        0.80140    0.80440    0.76640    1.000
    C5       C        0.58140    0.77000    0.51890    1.000
    C6       C        0.67980    0.78570    0.77110    1.000
    C7       C        0.44840    0.78800    0.19330    1.000
    C8       C        0.79110    0.20220    0.93530    1.000
    C9       C        0.97590    0.76840    0.08050    1.000
    C10      C        0.91110    0.73140    0.72750    1.000
    C11      C        0.66020    0.22140    0.43350    1.000
    C12      C        0.47390    0.56780    0.27590    1.000
    C13      C        0.69230    0.83410    0.60570    1.000
    C14      C        0.47280    0.74870    0.25800    1.000
    C15      C        0.90060    0.24390    0.95150    1.000
    C16      C        0.21860    0.92920    0.70890    1.000
    C17      C        0.95900    0.26030    0.18930    1.000
    C18      C        0.67280    0.04050    0.26580    1.000
    C19      C        0.71200    0.80340    0.21300    1.000
    C20      C        0.64800    0.51450    0.76820    1.000
    C21      C        0.35200    0.74630    0.51450    1.000
    C22      C        0.80140    0.23360    0.03800    1.000
    C23      C        0.21240    0.80620    0.21440    1.000
    C24      C        0.91270    0.20690    0.95870    1.000
    C25      C        0.64800    0.25370    0.48550    1.000
    C26      C        0.52720    0.25130    0.74200    1.000
    C27      C        0.67460    0.21320    0.96320    1.000
    C28      C        0.21240    0.78560    0.59180    1.000
    C29      C        0.18480    0.09420    0.83850    1.000
    C30      C        0.58140    0.77490    0.56470    1.000
    C31      C        0.28800    0.21300    0.40960    1.000
    C32      C        0.08730    0.79310    0.04130    1.000
    C33      C        0.30770    0.60570    0.77160    1.000
    C34      C        0.53900    0.20210    0.79410    1.000
    C35      C        0.02410    0.68790    0.76840    1.000
    C36      C        0.90060    0.70760    0.75610    1.000
    C37      C        0.30770    0.16590    0.39430    1.000
    C38      C        0.08890    0.72750    0.99610    1.000
    C39      C        0.69230    0.39430    0.22840    1.000
    C40      C        0.33980    0.77860    0.56650    1.000
    C41      C        0.19860    0.03800    0.80440    1.000
    C42      C        0.55160    0.19330    0.40530    1.000
    C43      C        0.18850    0.69140    0.91020    1.000
    C44      C        0.21860    0.29110    0.22030    1.000
    C45      C        0.08890    0.00390    0.73140    1.000
    C46      C        0.43080    0.57090    0.76850    1.000
    C47      C        0.78760    0.59180    0.80620    1.000
    C48      C        0.78760    0.19380    0.78560    1.000
    C49      C        0.91110    0.27250    0.00390    1.000
    C50      C        0.53900    0.59200    0.79790    1.000
    C51      C        0.32720    0.26580    0.22530    1.000
    C52      C        0.91110    0.99610    0.26860    1.000
    C53      C        0.47280    0.74200    0.49070    1.000
    C54      C        0.41600    0.23610    0.74690    1.000
    C55      C        0.71200    0.78700    0.59040    1.000
    C56      C        0.32020    0.01460    0.78570    1.000
    C57      C        0.41860    0.23000    0.48110    1.000
    C58      C        0.67460    0.03680    0.25000    1.000
    C59      C        0.35200    0.48550    0.23180    1.000
    C60      C        0.08730    0.24820    0.20690    1.000
    C61      C        0.54270    0.06260    0.26450    1.000
    C62      C        0.78140    0.70890    0.77970    1.000
    C63      C        0.55160    0.21200    0.80670    1.000
    C64      C        0.08890    0.26860    0.27250    1.000
    C65      C        0.46100    0.79410    0.59200    1.000
    C66      C        0.41600    0.51080    0.76390    1.000
    C67      C        0.32540    0.78680    0.03680    1.000
    C68      C        0.91270    0.75180    0.79310    1.000
    C69      C        0.66020    0.21210    0.77860    1.000
    C70      C        0.04100    0.73970    0.81070    1.000
    C71      C        0.58400    0.76390    0.25310    1.000
    C72      C        0.28800    0.59040    0.80340    1.000
    C73      C        0.81520    0.90580    0.16150    1.000
    C74      C        0.52720    0.25800    0.50930    1.000
    C75      C        0.91790    0.22260    0.01000    1.000
    C76      C        0.47390    0.72410    0.29190    1.000
    C77      C        0.04100    0.07100    0.26030    1.000
    C78      C        0.31670    0.74610    0.98810    1.000
    C79      C        0.02410    0.08050    0.31210    1.000
    C80      C        0.80140    0.96200    0.19560    1.000
    C81      C        0.67280    0.22530    0.95950    1.000
    C82      C        0.53900    0.20590    0.40800    1.000
    C83      C        0.91790    0.78740    0.77740    1.000
    C84      C        0.45730    0.79810    0.06260    1.000
    C85      C        0.46100    0.40800    0.20210    1.000
    C86      C        0.80250    0.27750    0.03420    1.000
    C87      C        0.46100    0.79790    0.20590    1.000
    C88      C        0.41860    0.22510    0.43530    1.000
    C89      C        0.41860    0.51890    0.74890    1.000
    C90      C        0.32720    0.77470    0.04050    1.000
    C91      C        0.54270    0.73550    0.79810    1.000
    C92      C        0.69230    0.77160    0.16590    1.000
    C93      C        0.64800    0.23180    0.74630    1.000
    C94      C        0.58140    0.74890    0.23000    1.000
    C95      C        0.58140    0.43530    0.21020    1.000
    C96      C        0.54270    0.20190    0.93740    1.000
    C97      C        0.35200    0.76820    0.25370    1.000
    C98      C        0.81150    0.91020    0.21880    1.000
    C99      C        0.58140    0.78980    0.22510    1.000
    C100     C        0.95900    0.92900    0.73970    1.000
    C101     C        0.66020    0.56650    0.78790    1.000
    C102     C        0.78140    0.07080    0.29110    1.000
    C103     C        0.67280    0.73420    0.77470    1.000
    C104     C        0.52610    0.29190    0.56780    1.000
    C105     C        0.20890    0.26690    0.20220    1.000
    C106     C        0.19750    0.24330    0.27750    1.000
    C107     C        0.09940    0.29240    0.24390    1.000
    C108     C        0.67980    0.98540    0.21430    1.000
    C109     C        0.32540    0.96320    0.75000    1.000
    C110     C        0.80250    0.96580    0.24330    1.000
    C111     C        0.45730    0.26450    0.20190    1.000
    C112     C        0.97590    0.91950    0.68790    1.000
    C113     C        0.56920    0.42910    0.23150    1.000
    C114     C        0.71200    0.40960    0.19660    1.000
    C115     C        0.58400    0.48920    0.23610    1.000
    C116     C        0.21240    0.40820    0.19380    1.000
    C117     C        0.79110    0.73310    0.79780    1.000
    C118     C        0.52720    0.49070    0.74870    1.000
    C119     C        0.78140    0.22030    0.92920    1.000
    C120     C        0.81150    0.78120    0.69140    1.000
    C121     C        0.58400    0.74690    0.51080    1.000
    C122     C        0.81520    0.83850    0.74430    1.000
    C123     C        0.43080    0.23150    0.80240    1.000
    C124     C        0.41860    0.25110    0.77000    1.000
    C125     C        0.91790    0.99000    0.21260    1.000
    C126     C        0.41860    0.21020    0.77490    1.000
    C127     C        0.58140    0.48110    0.25110    1.000
    C128     C        0.47280    0.50930    0.25130    1.000
    C129     C        0.32020    0.21430    0.22890    1.000
    C130     C        0.08210    0.77740    0.99000    1.000
    C131     C        0.18850    0.21880    0.30860    1.000
    C132     C        0.44840    0.40530    0.21200    1.000
    C133     C        0.43080    0.19760    0.42910    1.000
    C134     C        0.32720    0.95950    0.73420    1.000
    C135     C        0.31670    0.24200    0.25390    1.000
    C136     C        0.20890    0.79780    0.06470    1.000
    C137     C        0.52610    0.43220    0.72410    1.000
    C138     C        0.67980    0.22890    0.01460    1.000
    C139     C        0.08210    0.01000    0.78740    1.000
    C140     C        0.68330    0.98810    0.24200    1.000
    C141     C        0.68330    0.25390    0.01190    1.000
    C142     C        0.19750    0.72250    0.96580    1.000
    C143     C        0.95900    0.81070    0.07100    1.000
    C144     C        0.41600    0.25310    0.48920    1.000
    C145     C        0.18480    0.74430    0.90580    1.000
    C146     C        0.20890    0.93530    0.73310    1.000
    C147     C        0.90060    0.04850    0.29240    1.000
    C148     C        0.56920    0.80240    0.57090    1.000
    C149     C        0.19750    0.03420    0.75670    1.000
    C150     C        0.81520    0.25570    0.09420    1.000
    C151     C        0.56920    0.76850    0.19760    1.000
    C152     C        0.19860    0.76640    0.96200    1.000
    C153     C        0.02410    0.23160    0.91950    1.000
    C154     C        0.79110    0.06470    0.26690    1.000
    C155     C        0.33980    0.43350    0.21210    1.000
    C156     C        0.08210    0.21260    0.22260    1.000
    C157     C        0.32540    0.25000    0.21320    1.000
    C158     C        0.33980    0.78790    0.22140    1.000
    C159     C        0.47390    0.70810    0.43220    1.000
    C160     C        0.44840    0.80670    0.59470    1.000
    C161     C        0.41860    0.56470    0.78980    1.000
    C162     C        0.08730    0.95870    0.75180    1.000
    C163     C        0.68330    0.75800    0.74610    1.000
    C164     C        0.18850    0.08980    0.78120    1.000
    C165     C        0.91270    0.04130    0.24820    1.000
    C166     C        0.04100    0.18930    0.92900    1.000
    C167     C        0.28800    0.19660    0.78700    1.000
    C168     C        0.19860    0.19560    0.23360    1.000
    C169     C        0.18480    0.16150    0.25570    1.000
    C170     C        0.52610    0.27590    0.70810    1.000
    C171     C        0.32020    0.77110    0.98540    1.000
    C172     C        0.30770    0.22840    0.83410    1.000
    C173     C        0.67460    0.75000    0.78680    1.000
    C174     C        0.78760    0.21440    0.40820    1.000
    C175     C        0.45730    0.93740    0.73550    1.000
    C176     C        0.21860    0.77970    0.07080    1.000
    C177     C        0.09940    0.95150    0.70760    1.000
    C178     C        0.81150    0.30860    0.08980    1.000
    C179     C        0.31670    0.01190    0.75800    1.000
    C180     C        0.09940    0.75610    0.04850    1.000
    O1       O        0.32100    0.60880    0.71730    1.000
    O2       O        0.68170    0.77010    0.12990    1.000
    O3       O        0.81430    0.77940    0.56870    1.000
    O4       O        0.98690    0.35090    0.22930    1.000
    O5       O        0.93140    0.37030    0.09200    1.000
    O6       O        0.67900    0.89150    0.60880    1.000
    O7       O        0.71090    0.82890    0.19260    1.000
    O8       O        0.10810    0.79620    0.23240    1.000
    O9       O        0.37510    0.72440    0.31610    1.000
    O10      O        0.79570    0.63900    0.83160    1.000
    O11      O        0.19870    0.58560    0.77420    1.000
    O12      O        0.03870    0.16280    0.88330    1.000
    O13      O        0.55500    0.96590    0.75960    1.000
    O14      O        0.07530    0.71940    0.88340    1.000
    O15      O        0.68170    0.87010    0.64020    1.000
    O16      O        0.53770    0.11050    0.27290    1.000
    O17      O        0.62490    0.40830    0.72440    1.000
    O18      O        0.56300    0.96390    0.74080    1.000
    O19      O        0.72020    0.88210    0.19160    1.000
    O20      O        0.72020    0.80840    0.69050    1.000
    O21      O        0.46230    0.88950    0.72710    1.000
    O22      O        0.44500    0.03410    0.24040    1.000
    O23      O        0.01310    0.12160    0.35090    1.000
    O24      O        0.69000    0.91000    0.10800    1.000
    O25      O        0.32100    0.28270    0.89150    1.000
    O26      O        0.31000    0.09000    0.89200    1.000
    O27      O        0.71090    0.80740    0.63630    1.000
    O28      O        0.80130    0.41440    0.22580    1.000
    O29      O        0.92470    0.83600    0.71940    1.000
    O30      O        0.28910    0.17110    0.80740    1.000
    O31      O        0.93140    0.90800    0.27830    1.000
    O32      O        0.46250    0.89340    0.70020    1.000
    O33      O        0.46230    0.27290    0.16240    1.000
    O34      O        0.01800    0.73040    0.10550    1.000
    O35      O        0.46250    0.80680    0.10660    1.000
    O36      O        0.55500    0.79370    0.03410    1.000
    O37      O        0.72020    0.30950    0.11790    1.000
    O38      O        0.56300    0.25920    0.22310    1.000
    O39      O        0.69000    0.19800    0.09000    1.000
    O40      O        0.53770    0.72710    0.83760    1.000
    O41      O        0.12810    0.70830    0.76600    1.000
    O42      O        0.85710    0.95010    0.75520    1.000
    O43      O        0.44500    0.20630    0.96590    1.000
    O44      O        0.89190    0.23240    0.43620    1.000
    O45      O        0.18570    0.56870    0.78930    1.000
    O46      O        0.27980    0.69050    0.88210    1.000
    O47      O        0.06860    0.62970    0.90800    1.000
    O48      O        0.37510    0.68390    0.40830    1.000
    O49      O        0.01310    0.22930    0.87840    1.000
    O50      O        0.31830    0.12990    0.35980    1.000
    O51      O        0.71170    0.25420    0.11930    1.000
    O52      O        0.06860    0.09200    0.72170    1.000
    O53      O        0.27980    0.19160    0.30950    1.000
    O54      O        0.01800    0.89450    0.62490    1.000
    O55      O        0.71090    0.36370    0.17110    1.000
    O56      O        0.62490    0.27560    0.68390    1.000
    O57      O        0.20430    0.36100    0.16840    1.000
    O58      O        0.07530    0.11660    0.83600    1.000
    O59      O        0.14290    0.19490    0.95010    1.000
    O60      O        0.08090    0.66670    0.89370    1.000
    O61      O        0.28830    0.74580    0.88070    1.000
    O62      O        0.08090    0.22700    0.33330    1.000
    O63      O        0.41640    0.29990    0.71180    1.000
    O64      O        0.79570    0.19260    0.36100    1.000
    O65      O        0.43700    0.03610    0.25920    1.000
    O66      O        0.87190    0.29170    0.23400    1.000
    O67      O        0.01800    0.37510    0.26960    1.000
    O68      O        0.58360    0.58810    0.29990    1.000
    O69      O        0.14290    0.75520    0.80510    1.000
    O70      O        0.81430    0.43130    0.21070    1.000
    O71      O        0.56300    0.77690    0.03610    1.000
    O72      O        0.20430    0.83160    0.19260    1.000
    O73      O        0.43700    0.74080    0.77690    1.000
    O74      O        0.03870    0.72050    0.83720    1.000
    O75      O        0.27980    0.11790    0.80840    1.000
    O76      O        0.89190    0.20380    0.76760    1.000
    O77      O        0.55500    0.24040    0.20630    1.000
    O78      O        0.53750    0.19320    0.89340    1.000
    O79      O        0.06860    0.27830    0.37030    1.000
    O80      O        0.87190    0.76600    0.05770    1.000
    O81      O        0.80130    0.81140    0.58560    1.000
    O82      O        0.92470    0.28060    0.11660    1.000
    O83      O        0.85710    0.24480    0.19490    1.000
    O84      O        0.31000    0.10800    0.19800    1.000
    O85      O        0.58360    0.71180    0.41190    1.000
    O86      O        0.20430    0.80740    0.63900    1.000
    O87      O        0.71170    0.88070    0.13490    1.000
    O88      O        0.80130    0.77420    0.18860    1.000
    O89      O        0.98690    0.77070    0.12160    1.000
    O90      O        0.93140    0.72170    0.62970    1.000
    O91      O        0.10810    0.43620    0.20380    1.000
    O92      O        0.28830    0.13490    0.25420    1.000
    O93      O        0.14290    0.04990    0.24480    1.000
    O94      O        0.32100    0.10850    0.39120    1.000
    O95      O        0.87190    0.94230    0.70830    1.000
    O96      O        0.96130    0.83720    0.11670    1.000
    O97      O        0.98690    0.87840    0.64910    1.000
    O98      O        0.91910    0.77300    0.66670    1.000
    O99      O        0.91910    0.89370    0.22700    1.000
    O100     O        0.68170    0.35980    0.22990    1.000
    O101     O        0.91910    0.33330    0.10630    1.000
    O102     O        0.67900    0.71730    0.10850    1.000
    O103     O        0.46250    0.29980    0.19320    1.000
    O104     O        0.18570    0.22060    0.43130    1.000
    O105     O        0.12810    0.23400    0.94230    1.000
    O106     O        0.18570    0.21070    0.77940    1.000
    O107     O        0.98200    0.62490    0.73040    1.000
    O108     O        0.41640    0.28820    0.58810    1.000
    O109     O        0.31830    0.22990    0.87010    1.000
    O110     O        0.67900    0.39120    0.28270    1.000
    O111     O        0.53770    0.16240    0.88950    1.000
    O112     O        0.81430    0.78930    0.22060    1.000
    O113     O        0.79570    0.16840    0.80740    1.000
    O114     O        0.53750    0.10660    0.29980    1.000
    O115     O        0.98200    0.10550    0.37510    1.000
    O116     O        0.89190    0.56380    0.79620    1.000
    O117     O        0.46230    0.83760    0.11050    1.000
    O118     O        0.58360    0.70010    0.28820    1.000
    O119     O        0.41640    0.41190    0.70010    1.000
    O120     O        0.03870    0.11670    0.27950    1.000
    O121     O        0.31000    0.80200    0.91000    1.000
    O122     O        0.43700    0.22310    0.96390    1.000
    O123     O        0.19870    0.18860    0.41440    1.000
    O124     O        0.12810    0.05770    0.29170    1.000
    O125     O        0.08090    0.10630    0.77300    1.000
    O126     O        0.10810    0.76760    0.56380    1.000
    O127     O        0.31830    0.64020    0.77010    1.000
    O128     O        0.19870    0.22580    0.81140    1.000
    O129     O        0.44500    0.75960    0.79370    1.000
    O130     O        0.96130    0.88330    0.72050    1.000
    O131     O        0.98200    0.26960    0.89450    1.000
    O132     O        0.69000    0.89200    0.80200    1.000
    O133     O        0.85710    0.80510    0.04990    1.000
    O134     O        0.53750    0.70020    0.80680    1.000
    O135     O        0.71170    0.86510    0.74580    1.000
    O136     O        0.28910    0.19260    0.36370    1.000
    O137     O        0.96130    0.27950    0.16280    1.000
    O138     O        0.37510    0.59170    0.27560    1.000
    O139     O        0.28910    0.63630    0.82890    1.000
    O140     O        0.92470    0.88340    0.16400    1.000
    O141     O        0.07530    0.16400    0.28060    1.000
    O142     O        0.28830    0.11930    0.86510    1.000
    O143     O        0.62490    0.31610    0.59170    1.000
    O144     O        0.01310    0.64910    0.77070    1.000
