# CIF file generated by openbabel 3.1.0, see https://openbabel.org
data_I
_chemical_name_common 'image0'
_cell_length_a 25.81
_cell_length_b 25.81
_cell_length_c 6.901
_cell_angle_alpha 90
_cell_angle_beta 90
_cell_angle_gamma 120
_space_group_name_H-M_alt 'P 1'
_space_group_name_Hall 'P 1'
loop_
    _symmetry_equiv_pos_as_xyz
    x,y,z
loop_
    _atom_site_label
    _atom_site_type_symbol
    _atom_site_fract_x
    _atom_site_fract_y
    _atom_site_fract_z
    _atom_site_occupancy
    Co1      Co       0.68593    0.05053    0.02140    1.000
    O1       O        0.60782    0.02285    0.16270    1.000
    O2       O        0.62955    0.99238    0.80790    1.000
    O3       O        0.56356    0.97027    0.57140    1.000
    N1       N        0.68890    0.13390    0.91580    1.000
    N2       N        0.69490    0.17750    0.88660    1.000
    C1       C        0.55580    0.01080    0.07760    1.000
    C2       C        0.54130    0.99520    0.88000    1.000
    C3       C        0.48670    0.98520    0.80840    1.000
    H1       H        0.47790    0.97520    0.67540    1.000
    C4       C        0.58040    0.98580    0.74370    1.000
    Co2      Co       0.35260    0.38386    0.35473    1.000
    O4       O        0.27449    0.35618    0.49603    1.000
    O5       O        0.29622    0.32571    0.14123    1.000
    O6       O        0.23023    0.30360    0.90473    1.000
    N3       N        0.35557    0.46723    0.24913    1.000
    N4       N        0.36157    0.51083    0.21993    1.000
    C5       C        0.22247    0.34413    0.41093    1.000
    C6       C        0.20797    0.32853    0.21333    1.000
    C7       C        0.15337    0.31853    0.14173    1.000
    H2       H        0.14457    0.30853    0.00873    1.000
    C8       C        0.24707    0.31913    0.07703    1.000
    Co3      Co       0.01926    0.71720    0.68807    1.000
    O7       O        0.94115    0.68952    0.82937    1.000
    O8       O        0.96288    0.65905    0.47457    1.000
    O9       O        0.89689    0.63694    0.23807    1.000
    N5       N        0.02223    0.80057    0.58247    1.000
    N6       N        0.02823    0.84417    0.55327    1.000
    C9       C        0.88913    0.67747    0.74427    1.000
    C10      C        0.87463    0.66187    0.54667    1.000
    C11      C        0.82003    0.65187    0.47507    1.000
    H3       H        0.81123    0.64187    0.34207    1.000
    C12      C        0.91373    0.65247    0.41037    1.000
    Co4      Co       0.94947    0.63540    0.02140    1.000
    O10      O        0.97715    0.58497    0.16270    1.000
    O11      O        0.00762    0.63717    0.80790    1.000
    O12      O        0.02973    0.59329    0.57140    1.000
    N7       N        0.86610    0.55500    0.91580    1.000
    N8       N        0.82250    0.51740    0.88660    1.000
    C13      C        0.98920    0.54500    0.07760    1.000
    C14      C        0.00480    0.54610    0.88000    1.000
    C15      C        0.01480    0.50150    0.80840    1.000
    H4       H        0.02480    0.50270    0.67540    1.000
    C16      C        0.01420    0.59460    0.74370    1.000
    Co5      Co       0.61614    0.96873    0.35473    1.000
    O13      O        0.64382    0.91830    0.49603    1.000
    O14      O        0.67429    0.97050    0.14123    1.000
    O15      O        0.69640    0.92662    0.90473    1.000
    N9       N        0.53277    0.88833    0.24913    1.000
    N10      N        0.48917    0.85073    0.21993    1.000
    C17      C        0.65587    0.87833    0.41093    1.000
    C18      C        0.67147    0.87943    0.21333    1.000
    C19      C        0.68147    0.83483    0.14173    1.000
    H5       H        0.69147    0.83603    0.00873    1.000
    C20      C        0.68087    0.92793    0.07703    1.000
    Co6      Co       0.28280    0.30207    0.68807    1.000
    O16      O        0.31048    0.25164    0.82937    1.000
    O17      O        0.34095    0.30384    0.47457    1.000
    O18      O        0.36306    0.25996    0.23807    1.000
    N11      N        0.19943    0.22167    0.58247    1.000
    N12      N        0.15583    0.18407    0.55327    1.000
    C21      C        0.32253    0.21167    0.74427    1.000
    C22      C        0.33813    0.21277    0.54667    1.000
    C23      C        0.34813    0.16817    0.47507    1.000
    H6       H        0.35813    0.16937    0.34207    1.000
    C24      C        0.34753    0.26127    0.41037    1.000
    Co7      Co       0.36460    0.31407    0.02140    1.000
    O19      O        0.41503    0.39218    0.16270    1.000
    O20      O        0.36283    0.37045    0.80790    1.000
    O21      O        0.40671    0.43644    0.57140    1.000
    N13      N        0.44500    0.31110    0.91580    1.000
    N14      N        0.48260    0.30510    0.88660    1.000
    C25      C        0.45500    0.44420    0.07760    1.000
    C26      C        0.45390    0.45870    0.88000    1.000
    C27      C        0.49850    0.51330    0.80840    1.000
    H7       H        0.49730    0.52210    0.67540    1.000
    C28      C        0.40540    0.41960    0.74370    1.000
    Co8      Co       0.03127    0.64740    0.35473    1.000
    O22      O        0.08170    0.72551    0.49603    1.000
    O23      O        0.02950    0.70378    0.14123    1.000
    O24      O        0.07338    0.76977    0.90473    1.000
    N15      N        0.11167    0.64443    0.24913    1.000
    N16      N        0.14927    0.63843    0.21993    1.000
    C29      C        0.12167    0.77753    0.41093    1.000
    C30      C        0.12057    0.79203    0.21333    1.000
    C31      C        0.16517    0.84663    0.14173    1.000
    H8       H        0.16397    0.85543    0.00873    1.000
    C32      C        0.07207    0.75293    0.07703    1.000
    Co9      Co       0.69793    0.98074    0.68807    1.000
    O25      O        0.74836    0.05885    0.82937    1.000
    O26      O        0.69616    0.03712    0.47457    1.000
    O27      O        0.74004    0.10311    0.23807    1.000
    N17      N        0.77833    0.97777    0.58247    1.000
    N18      N        0.81593    0.97177    0.55327    1.000
    C33      C        0.78833    0.11087    0.74427    1.000
    C34      C        0.78723    0.12537    0.54667    1.000
    C35      C        0.83183    0.17997    0.47507    1.000
    H9       H        0.83063    0.18877    0.34207    1.000
    C36      C        0.73873    0.08627    0.41037    1.000
    Co10     Co       0.31407    0.94947    0.97860    1.000
    O28      O        0.39218    0.97715    0.83730    1.000
    O29      O        0.37045    0.00762    0.19210    1.000
    O30      O        0.43644    0.02973    0.42860    1.000
    N19      N        0.31110    0.86610    0.08420    1.000
    N20      N        0.30510    0.82250    0.11340    1.000
    C37      C        0.44420    0.98920    0.92240    1.000
    C38      C        0.45870    0.00480    0.12000    1.000
    C39      C        0.51330    0.01480    0.19160    1.000
    H10      H        0.52210    0.02480    0.32460    1.000
    C40      C        0.41960    0.01420    0.25630    1.000
    Co11     Co       0.98074    0.28280    0.31193    1.000
    O31      O        0.05885    0.31048    0.17063    1.000
    O32      O        0.03712    0.34095    0.52543    1.000
    O33      O        0.10311    0.36306    0.76193    1.000
    N21      N        0.97777    0.19943    0.41753    1.000
    N22      N        0.97177    0.15583    0.44673    1.000
    C41      C        0.11087    0.32253    0.25573    1.000
    C42      C        0.12537    0.33813    0.45333    1.000
    C43      C        0.17997    0.34813    0.52493    1.000
    H11      H        0.18877    0.35813    0.65793    1.000
    C44      C        0.08627    0.34753    0.58963    1.000
    Co12     Co       0.64740    0.61614    0.64527    1.000
    O34      O        0.72551    0.64382    0.50397    1.000
    O35      O        0.70378    0.67429    0.85877    1.000
    O36      O        0.76977    0.69640    0.09527    1.000
    N23      N        0.64443    0.53277    0.75087    1.000
    N24      N        0.63843    0.48917    0.78007    1.000
    C45      C        0.77753    0.65587    0.58907    1.000
    C46      C        0.79203    0.67147    0.78667    1.000
    C47      C        0.84663    0.68147    0.85827    1.000
    H12      H        0.85543    0.69147    0.99127    1.000
    C48      C        0.75293    0.68087    0.92297    1.000
    Co13     Co       0.05053    0.36460    0.97860    1.000
    O37      O        0.02285    0.41503    0.83730    1.000
    O38      O        0.99238    0.36283    0.19210    1.000
    O39      O        0.97027    0.40671    0.42860    1.000
    N25      N        0.13390    0.44500    0.08420    1.000
    N26      N        0.17750    0.48260    0.11340    1.000
    C49      C        0.01080    0.45500    0.92240    1.000
    C50      C        0.99520    0.45390    0.12000    1.000
    C51      C        0.98520    0.49850    0.19160    1.000
    H13      H        0.97520    0.49730    0.32460    1.000
    C52      C        0.98580    0.40540    0.25630    1.000
    Co14     Co       0.71720    0.69793    0.31193    1.000
    O40      O        0.68952    0.74836    0.17063    1.000
    O41      O        0.65905    0.69616    0.52543    1.000
    O42      O        0.63694    0.74004    0.76193    1.000
    N27      N        0.80057    0.77833    0.41753    1.000
    N28      N        0.84417    0.81593    0.44673    1.000
    C53      C        0.67747    0.78833    0.25573    1.000
    C54      C        0.66187    0.78723    0.45333    1.000
    C55      C        0.65187    0.83183    0.52493    1.000
    H14      H        0.64187    0.83063    0.65793    1.000
    C56      C        0.65247    0.73873    0.58963    1.000
    Co15     Co       0.38386    0.03127    0.64527    1.000
    O43      O        0.35618    0.08170    0.50397    1.000
    O44      O        0.32571    0.02950    0.85877    1.000
    O45      O        0.30360    0.07338    0.09527    1.000
    N29      N        0.46723    0.11167    0.75087    1.000
    N30      N        0.51083    0.14927    0.78007    1.000
    C57      C        0.34413    0.12167    0.58907    1.000
    C58      C        0.32853    0.12057    0.78667    1.000
    C59      C        0.31853    0.16517    0.85827    1.000
    H15      H        0.30853    0.16397    0.99127    1.000
    C60      C        0.31913    0.07207    0.92297    1.000
    Co16     Co       0.63540    0.68593    0.97860    1.000
    O46      O        0.58497    0.60782    0.83730    1.000
    O47      O        0.63717    0.62955    0.19210    1.000
    O48      O        0.59329    0.56356    0.42860    1.000
    N31      N        0.55500    0.68890    0.08420    1.000
    N32      N        0.51740    0.69490    0.11340    1.000
    C61      C        0.54500    0.55580    0.92240    1.000
    C62      C        0.54610    0.54130    0.12000    1.000
    C63      C        0.50150    0.48670    0.19160    1.000
    H16      H        0.50270    0.47790    0.32460    1.000
    C64      C        0.59460    0.58040    0.25630    1.000
    Co17     Co       0.30207    0.01926    0.31193    1.000
    O49      O        0.25164    0.94115    0.17063    1.000
    O50      O        0.30384    0.96288    0.52543    1.000
    O51      O        0.25996    0.89689    0.76193    1.000
    N33      N        0.22167    0.02223    0.41753    1.000
    N34      N        0.18407    0.02823    0.44673    1.000
    C65      C        0.21167    0.88913    0.25573    1.000
    C66      C        0.21277    0.87463    0.45333    1.000
    C67      C        0.16817    0.82003    0.52493    1.000
    H17      H        0.16937    0.81123    0.65793    1.000
    C68      C        0.26127    0.91373    0.58963    1.000
    Co18     Co       0.96873    0.35260    0.64527    1.000
    O52      O        0.91830    0.27449    0.50397    1.000
    O53      O        0.97050    0.29622    0.85877    1.000
    O54      O        0.92662    0.23023    0.09527    1.000
    N35      N        0.88833    0.35557    0.75087    1.000
    N36      N        0.85073    0.36157    0.78007    1.000
    C69      C        0.87833    0.22247    0.58907    1.000
    C70      C        0.87943    0.20797    0.78667    1.000
    C71      C        0.83483    0.15337    0.85827    1.000
    H18      H        0.83603    0.14457    0.99127    1.000
    C72      C        0.92793    0.24707    0.92297    1.000
