# CIF file generated by openbabel 3.1.0, see https://openbabel.org
data_I
_chemical_name_common 'image0'
_cell_length_a 26.152
_cell_length_b 26.152
_cell_length_c 5.1356
_cell_angle_alpha 90
_cell_angle_beta 90
_cell_angle_gamma 90
_space_group_name_H-M_alt 'P 1'
_space_group_name_Hall 'P 1'
loop_
    _symmetry_equiv_pos_as_xyz
    x,y,z
loop_
    _atom_site_label
    _atom_site_type_symbol
    _atom_site_fract_x
    _atom_site_fract_y
    _atom_site_fract_z
    _atom_site_occupancy
    Zn1      Zn       0.27183    0.21567    0.87460    1.000
    O1       O        0.22490    0.26420    0.01910    1.000
    H1       H        0.20420    0.27520    0.90720    1.000
    N1       N        0.24450    0.14390    0.91230    1.000
    C1       C        0.26040    0.10780    0.06800    1.000
    H2       H        0.28540    0.11270    0.19410    1.000
    N2       N        0.23650    0.06240    0.02660    1.000
    C2       C        0.20750    0.12260    0.75780    1.000
    O2       O        0.27260    0.83490    0.43390    1.000
    C3       C        0.17850    0.14440    0.56220    1.000
    H3       H        0.18270    0.17860    0.51700    1.000
    O3       O        0.30030    0.87570    0.77300    1.000
    C4       C        0.14280    0.11390    0.43460    1.000
    C5       C        0.11350    0.13390    0.23520    1.000
    H4       H        0.11790    0.16800    0.18930    1.000
    C6       C        0.07770    0.10480    0.10130    1.000
    H5       H        0.05810    0.11890    0.96840    1.000
    C7       C        0.07220    0.05370    0.17260    1.000
    H6       H        0.04890    0.03330    0.08380    1.000
    C8       C        0.10070    0.03290    0.37310    1.000
    H7       H        0.09560    0.99900    0.42060    1.000
    C9       C        0.13720    0.06240    0.50610    1.000
    C10      C        0.16650    0.04070    0.70340    1.000
    H8       H        0.16310    0.00630    0.74670    1.000
    C11      C        0.20060    0.07190    0.83290    1.000
    C12      C        0.24950    0.01550    0.14570    1.000
    C13      C        0.27580    0.92510    0.38250    1.000
    C14      C        0.27040    0.01490    0.39300    1.000
    H9       H        0.27560    0.04580    0.47860    1.000
    C15      C        0.28370    0.97010    0.51680    1.000
    H10      H        0.29750    0.97020    0.68390    1.000
    C16      C        0.25460    0.92300    0.13800    1.000
    H11      H        0.24910    0.89190    0.05460    1.000
    C17      C        0.24190    0.96860    0.02140    1.000
    H12      H        0.22790    0.96820    0.85510    1.000
    C18      C        0.28860    0.87530    0.52100    1.000
    O4       O        0.34510    0.87200    0.55400    1.000
    C19      C        0.29920    0.00860    0.22400    1.000
    H13      H        0.32320    0.03430    0.19640    1.000
    C20      C        0.31400    0.96280    0.34400    1.000
    H14      H        0.34760    0.95740    0.39690    1.000
    C21      C        0.22470    0.93010    0.30300    1.000
    H15      H        0.20040    0.90450    0.32480    1.000
    C22      C        0.21410    0.97730    0.18700    1.000
    H16      H        0.18060    0.98340    0.13370    1.000
    Zn2      Zn       0.77183    0.71567    0.37460    1.000
    O5       O        0.72490    0.76420    0.51910    1.000
    H17      H        0.70420    0.77520    0.40720    1.000
    N3       N        0.74450    0.64390    0.41230    1.000
    C23      C        0.76040    0.60780    0.56800    1.000
    H18      H        0.78540    0.61270    0.69410    1.000
    N4       N        0.73650    0.56240    0.52660    1.000
    C24      C        0.70750    0.62260    0.25780    1.000
    O6       O        0.77260    0.33490    0.93390    1.000
    C25      C        0.67850    0.64440    0.06220    1.000
    H19      H        0.68270    0.67860    0.01700    1.000
    O7       O        0.80030    0.37570    0.27300    1.000
    C26      C        0.64280    0.61390    0.93460    1.000
    C27      C        0.61350    0.63390    0.73520    1.000
    H20      H        0.61790    0.66800    0.68930    1.000
    C28      C        0.57770    0.60480    0.60130    1.000
    H21      H        0.55810    0.61890    0.46840    1.000
    C29      C        0.57220    0.55370    0.67260    1.000
    H22      H        0.54890    0.53330    0.58380    1.000
    C30      C        0.60070    0.53290    0.87310    1.000
    H23      H        0.59560    0.49900    0.92060    1.000
    C31      C        0.63720    0.56240    0.00610    1.000
    C32      C        0.66650    0.54070    0.20340    1.000
    H24      H        0.66310    0.50630    0.24670    1.000
    C33      C        0.70060    0.57190    0.33290    1.000
    C34      C        0.74950    0.51550    0.64570    1.000
    C35      C        0.77580    0.42510    0.88250    1.000
    C36      C        0.77040    0.51490    0.89300    1.000
    H25      H        0.77560    0.54580    0.97860    1.000
    C37      C        0.78370    0.47010    0.01680    1.000
    H26      H        0.79750    0.47020    0.18390    1.000
    C38      C        0.75460    0.42300    0.63800    1.000
    H27      H        0.74910    0.39190    0.55460    1.000
    C39      C        0.74190    0.46860    0.52140    1.000
    H28      H        0.72790    0.46820    0.35510    1.000
    C40      C        0.78860    0.37530    0.02100    1.000
    O8       O        0.84510    0.37200    0.05400    1.000
    C41      C        0.79920    0.50860    0.72400    1.000
    H29      H        0.82320    0.53430    0.69640    1.000
    C42      C        0.81400    0.46280    0.84400    1.000
    H30      H        0.84760    0.45740    0.89690    1.000
    C43      C        0.72470    0.43010    0.80300    1.000
    H31      H        0.70040    0.40450    0.82480    1.000
    C44      C        0.71410    0.47730    0.68700    1.000
    H32      H        0.68060    0.48340    0.63370    1.000
    Zn3      Zn       0.72817    0.78433    0.87460    1.000
    O9       O        0.77510    0.73580    0.01910    1.000
    H33      H        0.79580    0.72480    0.90720    1.000
    N5       N        0.75550    0.85610    0.91230    1.000
    C45      C        0.73960    0.89220    0.06800    1.000
    H34      H        0.71460    0.88730    0.19410    1.000
    N6       N        0.76350    0.93760    0.02660    1.000
    C46      C        0.79250    0.87740    0.75780    1.000
    O10      O        0.72740    0.16510    0.43390    1.000
    C47      C        0.82150    0.85560    0.56220    1.000
    H35      H        0.81730    0.82140    0.51700    1.000
    O11      O        0.69970    0.12430    0.77300    1.000
    C48      C        0.85720    0.88610    0.43460    1.000
    C49      C        0.88650    0.86610    0.23520    1.000
    H36      H        0.88210    0.83200    0.18930    1.000
    C50      C        0.92230    0.89520    0.10130    1.000
    H37      H        0.94190    0.88110    0.96840    1.000
    C51      C        0.92780    0.94630    0.17260    1.000
    H38      H        0.95110    0.96670    0.08380    1.000
    C52      C        0.89930    0.96710    0.37310    1.000
    H39      H        0.90440    0.00100    0.42060    1.000
    C53      C        0.86280    0.93760    0.50610    1.000
    C54      C        0.83350    0.95930    0.70340    1.000
    H40      H        0.83690    0.99370    0.74670    1.000
    C55      C        0.79940    0.92810    0.83290    1.000
    C56      C        0.75050    0.98450    0.14570    1.000
    C57      C        0.72420    0.07490    0.38250    1.000
    C58      C        0.72960    0.98510    0.39300    1.000
    H41      H        0.72440    0.95420    0.47860    1.000
    C59      C        0.71630    0.02990    0.51680    1.000
    H42      H        0.70250    0.02980    0.68390    1.000
    C60      C        0.74540    0.07700    0.13800    1.000
    H43      H        0.75090    0.10810    0.05460    1.000
    C61      C        0.75810    0.03140    0.02140    1.000
    H44      H        0.77210    0.03180    0.85510    1.000
    C62      C        0.71140    0.12470    0.52100    1.000
    O12      O        0.65490    0.12800    0.55400    1.000
    C63      C        0.70080    0.99140    0.22400    1.000
    H45      H        0.67680    0.96570    0.19640    1.000
    C64      C        0.68600    0.03720    0.34400    1.000
    H46      H        0.65240    0.04260    0.39690    1.000
    C65      C        0.77530    0.06990    0.30300    1.000
    H47      H        0.79960    0.09550    0.32480    1.000
    C66      C        0.78590    0.02270    0.18700    1.000
    H48      H        0.81940    0.01660    0.13370    1.000
    Zn4      Zn       0.22817    0.28433    0.37460    1.000
    O13      O        0.27510    0.23580    0.51910    1.000
    H49      H        0.29580    0.22480    0.40720    1.000
    N7       N        0.25550    0.35610    0.41230    1.000
    C67      C        0.23960    0.39220    0.56800    1.000
    H50      H        0.21460    0.38730    0.69410    1.000
    N8       N        0.26350    0.43760    0.52660    1.000
    C68      C        0.29250    0.37740    0.25780    1.000
    O14      O        0.22740    0.66510    0.93390    1.000
    C69      C        0.32150    0.35560    0.06220    1.000
    H51      H        0.31730    0.32140    0.01700    1.000
    O15      O        0.19970    0.62430    0.27300    1.000
    C70      C        0.35720    0.38610    0.93460    1.000
    C71      C        0.38650    0.36610    0.73520    1.000
    H52      H        0.38210    0.33200    0.68930    1.000
    C72      C        0.42230    0.39520    0.60130    1.000
    H53      H        0.44190    0.38110    0.46840    1.000
    C73      C        0.42780    0.44630    0.67260    1.000
    H54      H        0.45110    0.46670    0.58380    1.000
    C74      C        0.39930    0.46710    0.87310    1.000
    H55      H        0.40440    0.50100    0.92060    1.000
    C75      C        0.36280    0.43760    0.00610    1.000
    C76      C        0.33350    0.45930    0.20340    1.000
    H56      H        0.33690    0.49370    0.24670    1.000
    C77      C        0.29940    0.42810    0.33290    1.000
    C78      C        0.25050    0.48450    0.64570    1.000
    C79      C        0.22420    0.57490    0.88250    1.000
    C80      C        0.22960    0.48510    0.89300    1.000
    H57      H        0.22440    0.45420    0.97860    1.000
    C81      C        0.21630    0.52990    0.01680    1.000
    H58      H        0.20250    0.52980    0.18390    1.000
    C82      C        0.24540    0.57700    0.63800    1.000
    H59      H        0.25090    0.60810    0.55460    1.000
    C83      C        0.25810    0.53140    0.52140    1.000
    H60      H        0.27210    0.53180    0.35510    1.000
    C84      C        0.21140    0.62470    0.02100    1.000
    O16      O        0.15490    0.62800    0.05400    1.000
    C85      C        0.20080    0.49140    0.72400    1.000
    H61      H        0.17680    0.46570    0.69640    1.000
    C86      C        0.18600    0.53720    0.84400    1.000
    H62      H        0.15240    0.54260    0.89690    1.000
    C87      C        0.27530    0.56990    0.80300    1.000
    H63      H        0.29960    0.59550    0.82480    1.000
    C88      C        0.28590    0.52270    0.68700    1.000
    H64      H        0.31940    0.51660    0.63370    1.000
    Zn5      Zn       0.21567    0.72817    0.12540    1.000
    O17      O        0.26420    0.77510    0.98090    1.000
    H65      H        0.27520    0.79580    0.09280    1.000
    N9       N        0.14390    0.75550    0.08770    1.000
    C89      C        0.10780    0.73960    0.93200    1.000
    H66      H        0.11270    0.71460    0.80590    1.000
    N10      N        0.06240    0.76350    0.97340    1.000
    C90      C        0.12260    0.79250    0.24220    1.000
    O18      O        0.83490    0.72740    0.56610    1.000
    C91      C        0.14440    0.82150    0.43780    1.000
    H67      H        0.17860    0.81730    0.48300    1.000
    O19      O        0.87570    0.69970    0.22700    1.000
    C92      C        0.11390    0.85720    0.56540    1.000
    C93      C        0.13390    0.88650    0.76480    1.000
    H68      H        0.16800    0.88210    0.81070    1.000
    C94      C        0.10480    0.92230    0.89870    1.000
    H69      H        0.11890    0.94190    0.03160    1.000
    C95      C        0.05370    0.92780    0.82740    1.000
    H70      H        0.03330    0.95110    0.91620    1.000
    C96      C        0.03290    0.89930    0.62690    1.000
    H71      H        0.99900    0.90440    0.57940    1.000
    C97      C        0.06240    0.86280    0.49390    1.000
    C98      C        0.04070    0.83350    0.29660    1.000
    H72      H        0.00630    0.83690    0.25330    1.000
    C99      C        0.07190    0.79940    0.16710    1.000
    C100     C        0.01550    0.75050    0.85430    1.000
    C101     C        0.92510    0.72420    0.61750    1.000
    C102     C        0.01490    0.72960    0.60700    1.000
    H73      H        0.04580    0.72440    0.52140    1.000
    C103     C        0.97010    0.71630    0.48320    1.000
    H74      H        0.97020    0.70250    0.31610    1.000
    C104     C        0.92300    0.74540    0.86200    1.000
    H75      H        0.89190    0.75090    0.94540    1.000
    C105     C        0.96860    0.75810    0.97860    1.000
    H76      H        0.96820    0.77210    0.14490    1.000
    C106     C        0.87530    0.71140    0.47900    1.000
    O20      O        0.87200    0.65490    0.44600    1.000
    C107     C        0.00860    0.70080    0.77600    1.000
    H77      H        0.03430    0.67680    0.80360    1.000
    C108     C        0.96280    0.68600    0.65600    1.000
    H78      H        0.95740    0.65240    0.60310    1.000
    C109     C        0.93010    0.77530    0.69700    1.000
    H79      H        0.90450    0.79960    0.67520    1.000
    C110     C        0.97730    0.78590    0.81300    1.000
    H80      H        0.98340    0.81940    0.86630    1.000
    Zn6      Zn       0.71567    0.22817    0.62540    1.000
    O21      O        0.76420    0.27510    0.48090    1.000
    H81      H        0.77520    0.29580    0.59280    1.000
    N11      N        0.64390    0.25550    0.58770    1.000
    C111     C        0.60780    0.23960    0.43200    1.000
    H82      H        0.61270    0.21460    0.30590    1.000
    N12      N        0.56240    0.26350    0.47340    1.000
    C112     C        0.62260    0.29250    0.74220    1.000
    O22      O        0.33490    0.22740    0.06610    1.000
    C113     C        0.64440    0.32150    0.93780    1.000
    H83      H        0.67860    0.31730    0.98300    1.000
    O23      O        0.37570    0.19970    0.72700    1.000
    C114     C        0.61390    0.35720    0.06540    1.000
    C115     C        0.63390    0.38650    0.26480    1.000
    H84      H        0.66800    0.38210    0.31070    1.000
    C116     C        0.60480    0.42230    0.39870    1.000
    H85      H        0.61890    0.44190    0.53160    1.000
    C117     C        0.55370    0.42780    0.32740    1.000
    H86      H        0.53330    0.45110    0.41620    1.000
    C118     C        0.53290    0.39930    0.12690    1.000
    H87      H        0.49900    0.40440    0.07940    1.000
    C119     C        0.56240    0.36280    0.99390    1.000
    C120     C        0.54070    0.33350    0.79660    1.000
    H88      H        0.50630    0.33690    0.75330    1.000
    C121     C        0.57190    0.29940    0.66710    1.000
    C122     C        0.51550    0.25050    0.35430    1.000
    C123     C        0.42510    0.22420    0.11750    1.000
    C124     C        0.51490    0.22960    0.10700    1.000
    H89      H        0.54580    0.22440    0.02140    1.000
    C125     C        0.47010    0.21630    0.98320    1.000
    H90      H        0.47020    0.20250    0.81610    1.000
    C126     C        0.42300    0.24540    0.36200    1.000
    H91      H        0.39190    0.25090    0.44540    1.000
    C127     C        0.46860    0.25810    0.47860    1.000
    H92      H        0.46820    0.27210    0.64490    1.000
    C128     C        0.37530    0.21140    0.97900    1.000
    O24      O        0.37200    0.15490    0.94600    1.000
    C129     C        0.50860    0.20080    0.27600    1.000
    H93      H        0.53430    0.17680    0.30360    1.000
    C130     C        0.46280    0.18600    0.15600    1.000
    H94      H        0.45740    0.15240    0.10310    1.000
    C131     C        0.43010    0.27530    0.19700    1.000
    H95      H        0.40450    0.29960    0.17520    1.000
    C132     C        0.47730    0.28590    0.31300    1.000
    H96      H        0.48340    0.31940    0.36630    1.000
    Zn7      Zn       0.78433    0.27183    0.12540    1.000
    O25      O        0.73580    0.22490    0.98090    1.000
    H97      H        0.72480    0.20420    0.09280    1.000
    N13      N        0.85610    0.24450    0.08770    1.000
    C133     C        0.89220    0.26040    0.93200    1.000
    H98      H        0.88730    0.28540    0.80590    1.000
    N14      N        0.93760    0.23650    0.97340    1.000
    C134     C        0.87740    0.20750    0.24220    1.000
    O26      O        0.16510    0.27260    0.56610    1.000
    C135     C        0.85560    0.17850    0.43780    1.000
    H99      H        0.82140    0.18270    0.48300    1.000
    O27      O        0.12430    0.30030    0.22700    1.000
    C136     C        0.88610    0.14280    0.56540    1.000
    C137     C        0.86610    0.11350    0.76480    1.000
    H100     H        0.83200    0.11790    0.81070    1.000
    C138     C        0.89520    0.07770    0.89870    1.000
    H101     H        0.88110    0.05810    0.03160    1.000
    C139     C        0.94630    0.07220    0.82740    1.000
    H102     H        0.96670    0.04890    0.91620    1.000
    C140     C        0.96710    0.10070    0.62690    1.000
    H103     H        0.00100    0.09560    0.57940    1.000
    C141     C        0.93760    0.13720    0.49390    1.000
    C142     C        0.95930    0.16650    0.29660    1.000
    H104     H        0.99370    0.16310    0.25330    1.000
    C143     C        0.92810    0.20060    0.16710    1.000
    C144     C        0.98450    0.24950    0.85430    1.000
    C145     C        0.07490    0.27580    0.61750    1.000
    C146     C        0.98510    0.27040    0.60700    1.000
    H105     H        0.95420    0.27560    0.52140    1.000
    C147     C        0.02990    0.28370    0.48320    1.000
    H106     H        0.02980    0.29750    0.31610    1.000
    C148     C        0.07700    0.25460    0.86200    1.000
    H107     H        0.10810    0.24910    0.94540    1.000
    C149     C        0.03140    0.24190    0.97860    1.000
    H108     H        0.03180    0.22790    0.14490    1.000
    C150     C        0.12470    0.28860    0.47900    1.000
    O28      O        0.12800    0.34510    0.44600    1.000
    C151     C        0.99140    0.29920    0.77600    1.000
    H109     H        0.96570    0.32320    0.80360    1.000
    C152     C        0.03720    0.31400    0.65600    1.000
    H110     H        0.04260    0.34760    0.60310    1.000
    C153     C        0.06990    0.22470    0.69700    1.000
    H111     H        0.09550    0.20040    0.67520    1.000
    C154     C        0.02270    0.21410    0.81300    1.000
    H112     H        0.01660    0.18060    0.86630    1.000
    Zn8      Zn       0.28433    0.77183    0.62540    1.000
    O29      O        0.23580    0.72490    0.48090    1.000
    H113     H        0.22480    0.70420    0.59280    1.000
    N15      N        0.35610    0.74450    0.58770    1.000
    C155     C        0.39220    0.76040    0.43200    1.000
    H114     H        0.38730    0.78540    0.30590    1.000
    N16      N        0.43760    0.73650    0.47340    1.000
    C156     C        0.37740    0.70750    0.74220    1.000
    O30      O        0.66510    0.77260    0.06610    1.000
    C157     C        0.35560    0.67850    0.93780    1.000
    H115     H        0.32140    0.68270    0.98300    1.000
    O31      O        0.62430    0.80030    0.72700    1.000
    C158     C        0.38610    0.64280    0.06540    1.000
    C159     C        0.36610    0.61350    0.26480    1.000
    H116     H        0.33200    0.61790    0.31070    1.000
    C160     C        0.39520    0.57770    0.39870    1.000
    H117     H        0.38110    0.55810    0.53160    1.000
    C161     C        0.44630    0.57220    0.32740    1.000
    H118     H        0.46670    0.54890    0.41620    1.000
    C162     C        0.46710    0.60070    0.12690    1.000
    H119     H        0.50100    0.59560    0.07940    1.000
    C163     C        0.43760    0.63720    0.99390    1.000
    C164     C        0.45930    0.66650    0.79660    1.000
    H120     H        0.49370    0.66310    0.75330    1.000
    C165     C        0.42810    0.70060    0.66710    1.000
    C166     C        0.48450    0.74950    0.35430    1.000
    C167     C        0.57490    0.77580    0.11750    1.000
    C168     C        0.48510    0.77040    0.10700    1.000
    H121     H        0.45420    0.77560    0.02140    1.000
    C169     C        0.52990    0.78370    0.98320    1.000
    H122     H        0.52980    0.79750    0.81610    1.000
    C170     C        0.57700    0.75460    0.36200    1.000
    H123     H        0.60810    0.74910    0.44540    1.000
    C171     C        0.53140    0.74190    0.47860    1.000
    H124     H        0.53180    0.72790    0.64490    1.000
    C172     C        0.62470    0.78860    0.97900    1.000
    O32      O        0.62800    0.84510    0.94600    1.000
    C173     C        0.49140    0.79920    0.27600    1.000
    H125     H        0.46570    0.82320    0.30360    1.000
    C174     C        0.53720    0.81400    0.15600    1.000
    H126     H        0.54260    0.84760    0.10310    1.000
    C175     C        0.56990    0.72470    0.19700    1.000
    H127     H        0.59550    0.70040    0.17520    1.000
    C176     C        0.52270    0.71410    0.31300    1.000
    H128     H        0.51660    0.68060    0.36630    1.000
