# CIF file generated by openbabel 3.1.0, see https://openbabel.org
data_I
_chemical_name_common 'image0'
_cell_length_a 9.4977
_cell_length_b 12.627
_cell_length_c 18.7072
_cell_angle_alpha 106.096
_cell_angle_beta 98.452
_cell_angle_gamma 100.275
_space_group_name_H-M_alt 'P 1'
_space_group_name_Hall 'P 1'
loop_
    _symmetry_equiv_pos_as_xyz
    x,y,z
loop_
    _atom_site_label
    _atom_site_type_symbol
    _atom_site_fract_x
    _atom_site_fract_y
    _atom_site_fract_z
    _atom_site_occupancy
    Eu1      Eu       0.23517    0.01618    0.00304    1.000
    O1       O        0.45050    0.02860    0.08570    1.000
    N1       N        0.00530    0.15210    0.68260    1.000
    N2       N        0.95640    0.60820    0.67320    1.000
    O2       O        0.68250    0.02120    0.11550    1.000
    O3       O        0.77650    0.82870    0.88910    1.000
    O4       O        0.01830    0.89120    0.92510    1.000
    O5       O        0.86280    0.06720    0.90750    1.000
    O6       O        0.10790    0.12140    0.94090    1.000
    C1       C        0.91980    0.23240    0.57840    1.000
    C2       C        0.90380    0.82810    0.88060    1.000
    C3       C        0.56300    0.07920    0.21560    1.000
    N3       N        0.56590    0.16510    0.36710    1.000
    C4       C        0.90280    0.41840    0.57350    1.000
    C5       C        0.70660    0.25560    0.50280    1.000
    C6       C        0.43640    0.10060    0.23990    1.000
    H1       H        0.34850    0.08810    0.20400    1.000
    C7       C        0.76850    0.37180    0.52290    1.000
    C8       C        0.97870    0.34760    0.60260    1.000
    C9       C        0.68880    0.09840    0.26960    1.000
    H2       H        0.77640    0.08350    0.25450    1.000
    C10      C        0.56480    0.03860    0.13160    1.000
    C11      C        0.68540    0.13980    0.34630    1.000
    H3       H        0.77000    0.15000    0.38390    1.000
    C12      C        0.06150    0.73940    0.79660    1.000
    H4       H        0.14550    0.78210    0.83470    1.000
    C13      C        0.92180    0.74360    0.80810    1.000
    C14      C        0.87870    0.14650    0.70510    1.000
    H5       H        0.79480    0.15180    0.67290    1.000
    C15      C        0.44010    0.14030    0.31680    1.000
    H6       H        0.35270    0.15020    0.33410    1.000
    C16      C        0.86810    0.13280    0.77610    1.000
    H7       H        0.77870    0.13060    0.79330    1.000
    C17      C        0.80200    0.67750    0.75420    1.000
    H8       H        0.70640    0.67820    0.76340    1.000
    C18      C        0.12200    0.13140    0.79500    1.000
    H9       H        0.20930    0.12910    0.82610    1.000
    C19      C        0.99400    0.12250    0.82090    1.000
    C20      C        0.78340    0.18360    0.52930    1.000
    C21      C        0.12210    0.40010    0.65790    1.000
    H10      H        0.16140    0.34090    0.67290    1.000
    H11      H        0.10740    0.45520    0.70310    1.000
    H12      H        0.19130    0.43860    0.63400    1.000
    C22      C        0.00830    0.15520    0.60210    1.000
    H13      H        0.11100    0.18060    0.59840    1.000
    H14      H        0.97000    0.07750    0.56630    1.000
    C23      C        0.07390    0.66950    0.72630    1.000
    H15      H        0.16840    0.66580    0.71630    1.000
    C24      C        0.97450    0.54340    0.59700    1.000
    H16      H        0.08030    0.55220    0.59720    1.000
    H17      H        0.93220    0.57600    0.55880    1.000
    C25      C        0.82140    0.61090    0.68730    1.000
    H18      H        0.73820    0.56520    0.64960    1.000
    C26      C        0.12500    0.14370    0.72360    1.000
    H19      H        0.21270    0.14610    0.70470    1.000
    C27      C        0.98700    0.10230    0.89610    1.000
    C28      C        0.68240    0.44720    0.48980    1.000
    H20      H        0.61310    0.47030    0.52160    1.000
    H21      H        0.62890    0.40410    0.43790    1.000
    H22      H        0.75100    0.51450    0.48900    1.000
    C29      C        0.55670    0.20510    0.45100    1.000
    H23      H        0.49720    0.26260    0.45870    1.000
    H24      H        0.50700    0.14020    0.46500    1.000
    C30      C        0.72150    0.05800    0.50430    1.000
    H25      H        0.77960    0.01950    0.47090    1.000
    H26      H        0.62000    0.04080    0.47670    1.000
    H27      H        0.72460    0.03180    0.54900    1.000
    Eu2      Eu       0.76483    0.98382    0.99696    1.000
    O7       O        0.54950    0.97140    0.91430    1.000
    N4       N        0.99470    0.84790    0.31740    1.000
    N5       N        0.04360    0.39180    0.32680    1.000
    O8       O        0.31750    0.97880    0.88450    1.000
    O9       O        0.22350    0.17130    0.11090    1.000
    O10      O        0.98170    0.10880    0.07490    1.000
    O11      O        0.13720    0.93280    0.09250    1.000
    O12      O        0.89210    0.87860    0.05910    1.000
    C31      C        0.08020    0.76760    0.42160    1.000
    C32      C        0.09620    0.17190    0.11940    1.000
    C33      C        0.43700    0.92080    0.78440    1.000
    N6       N        0.43410    0.83490    0.63290    1.000
    C34      C        0.09720    0.58160    0.42650    1.000
    C35      C        0.29340    0.74440    0.49720    1.000
    C36      C        0.56360    0.89940    0.76010    1.000
    H28      H        0.65150    0.91190    0.79600    1.000
    C37      C        0.23150    0.62820    0.47710    1.000
    C38      C        0.02130    0.65240    0.39740    1.000
    C39      C        0.31120    0.90160    0.73040    1.000
    H29      H        0.22360    0.91650    0.74550    1.000
    C40      C        0.43520    0.96140    0.86840    1.000
    C41      C        0.31460    0.86020    0.65370    1.000
    H30      H        0.23000    0.85000    0.61610    1.000
    C42      C        0.93850    0.26060    0.20340    1.000
    H31      H        0.85450    0.21790    0.16530    1.000
    C43      C        0.07820    0.25640    0.19190    1.000
    C44      C        0.12130    0.85350    0.29490    1.000
    H32      H        0.20520    0.84820    0.32710    1.000
    C45      C        0.55990    0.85970    0.68320    1.000
    H33      H        0.64730    0.84980    0.66590    1.000
    C46      C        0.13190    0.86720    0.22390    1.000
    H34      H        0.22130    0.86940    0.20670    1.000
    C47      C        0.19800    0.32250    0.24580    1.000
    H35      H        0.29360    0.32180    0.23660    1.000
    C48      C        0.87800    0.86860    0.20500    1.000
    H36      H        0.79070    0.87090    0.17390    1.000
    C49      C        0.00600    0.87750    0.17910    1.000
    C50      C        0.21660    0.81640    0.47070    1.000
    C51      C        0.87790    0.59990    0.34210    1.000
    H37      H        0.83860    0.65910    0.32710    1.000
    H38      H        0.89260    0.54480    0.29690    1.000
    H39      H        0.80870    0.56140    0.36600    1.000
    C52      C        0.99170    0.84480    0.39790    1.000
    H40      H        0.88900    0.81940    0.40160    1.000
    H41      H        0.03000    0.92250    0.43370    1.000
    C53      C        0.92610    0.33050    0.27370    1.000
    H42      H        0.83160    0.33420    0.28370    1.000
    C54      C        0.02550    0.45660    0.40300    1.000
    H43      H        0.91970    0.44780    0.40280    1.000
    H44      H        0.06780    0.42400    0.44120    1.000
    C55      C        0.17860    0.38910    0.31270    1.000
    H45      H        0.26180    0.43480    0.35040    1.000
    C56      C        0.87500    0.85630    0.27640    1.000
    H46      H        0.78730    0.85390    0.29530    1.000
    C57      C        0.01300    0.89770    0.10390    1.000
    C58      C        0.31760    0.55280    0.51020    1.000
    H47      H        0.38690    0.52970    0.47840    1.000
    H48      H        0.37110    0.59590    0.56210    1.000
    H49      H        0.24900    0.48550    0.51100    1.000
    C59      C        0.44330    0.79490    0.54900    1.000
    H50      H        0.50280    0.73740    0.54130    1.000
    H51      H        0.49300    0.85980    0.53500    1.000
    C60      C        0.27850    0.94200    0.49570    1.000
    H52      H        0.22040    0.98050    0.52910    1.000
    H53      H        0.38000    0.95920    0.52330    1.000
    H54      H        0.27540    0.96820    0.45100    1.000
