# CIF file generated by openbabel 3.1.0, see https://openbabel.org
data_I
_chemical_name_common 'LAGQER_clean'
_cell_length_a 9.9098
_cell_length_b 10.5314
_cell_length_c 11.0619
_cell_angle_alpha 77.711
_cell_angle_beta 76.638
_cell_angle_gamma 66.32
_space_group_name_H-M_alt 'P 1'
_space_group_name_Hall 'P 1'
loop_
    _symmetry_equiv_pos_as_xyz
    x,y,z
loop_
    _atom_site_label
    _atom_site_type_symbol
    _atom_site_fract_x
    _atom_site_fract_y
    _atom_site_fract_z
    _atom_site_occupancy
    Sm1      Sm       0.94398    0.22639    0.82287    1.000
    Sm2      Sm       0.05602    0.77361    0.17713    1.000
    H1       H        0.65130    0.86100    0.14710    1.000
    H2       H        0.59690    0.11700    0.82250    1.000
    H3       H        0.43820    0.41230    0.70650    1.000
    H4       H        0.73810    0.50430    0.42650    1.000
    H5       H        0.31360    0.91900    0.50730    1.000
    H6       H        0.45340    0.18270    0.60780    1.000
    H7       H        0.34870    0.13900    0.85290    1.000
    H8       H        0.40310    0.88300    0.17750    1.000
    H9       H        0.56180    0.58770    0.29350    1.000
    H10      H        0.26190    0.49570    0.57350    1.000
    H11      H        0.68640    0.08100    0.49270    1.000
    H12      H        0.54660    0.81730    0.39220    1.000
    C1       C        0.64870    0.98720    0.98180    1.000
    C2       C        0.59110    0.91680    0.08800    1.000
    C3       C        0.55810    0.06990    0.89400    1.000
    C4       C        0.80860    0.97440    0.96480    1.000
    C5       C        0.60580    0.44860    0.57910    1.000
    C6       C        0.46300    0.44720    0.62340    1.000
    C7       C        0.64310    0.50220    0.45590    1.000
    C8       C        0.72030    0.38970    0.66480    1.000
    C9       C        0.35840    0.06350    0.56610    1.000
    C10      C        0.38840    0.95250    0.50380    1.000
    C11      C        0.47160    0.10980    0.56390    1.000
    C12      C        0.20740    0.12860    0.64430    1.000
    C13      C        0.35130    0.01280    0.01820    1.000
    C14      C        0.40890    0.08320    0.91200    1.000
    C15      C        0.44190    0.93010    0.10600    1.000
    C16      C        0.19140    0.02560    0.03520    1.000
    C17      C        0.39420    0.55140    0.42090    1.000
    C18      C        0.53700    0.55280    0.37660    1.000
    C19      C        0.35690    0.49780    0.54410    1.000
    C20      C        0.27970    0.61030    0.33520    1.000
    C21      C        0.64160    0.93650    0.43390    1.000
    C22      C        0.61160    0.04750    0.49620    1.000
    C23      C        0.52840    0.89020    0.43610    1.000
    C24      C        0.79260    0.87140    0.35570    1.000
    O1       O        0.85630    0.04420    0.87070    1.000
    O2       O        0.88050    0.89800    0.04840    1.000
    O3       O        0.85310    0.37980    0.62420    1.000
    O4       O        0.68120    0.34840    0.77980    1.000
    O5       O        0.17290    0.24480    0.67930    1.000
    O6       O        0.11950    0.06120    0.67500    1.000
    O7       O        0.14370    0.95580    0.12930    1.000
    O8       O        0.11950    0.10200    0.95160    1.000
    O9       O        0.14690    0.62020    0.37580    1.000
    O10      O        0.31880    0.65160    0.22020    1.000
    O11      O        0.82710    0.75520    0.32070    1.000
    O12      O        0.88050    0.93880    0.32500    1.000
