# CIF file generated by openbabel 3.1.0, see https://openbabel.org
data_I
_chemical_name_common 'PIZPET_clean_h'
_cell_length_a 8.486
_cell_length_b 9.737
_cell_length_c 17.271
_cell_angle_alpha 90
_cell_angle_beta 90
_cell_angle_gamma 112.25
_space_group_name_H-M_alt 'P 1'
_space_group_name_Hall 'P 1'
loop_
    _symmetry_equiv_pos_as_xyz
    x,y,z
loop_
    _atom_site_label
    _atom_site_type_symbol
    _atom_site_fract_x
    _atom_site_fract_y
    _atom_site_fract_z
    _atom_site_occupancy
    Y1       Y        0.84400    0.02450    0.25750    1.000
    Y2       Y        0.15600    0.47550    0.75750    1.000
    Y3       Y        0.15600    0.97550    0.74250    1.000
    Y4       Y        0.84400    0.52450    0.24250    1.000
    C1       C        0.90370    0.02500    0.09780    1.000
    C2       C        0.94650    0.02870    0.01460    1.000
    C3       C        0.56080    0.69820    0.21060    1.000
    C4       C        0.37940    0.60610    0.19900    1.000
    C5       C        0.31320    0.96020    0.28250    1.000
    C6       C        0.12730    0.86670    0.28660    1.000
    C7       C        0.09630    0.47500    0.59780    1.000
    C8       C        0.05350    0.47130    0.51460    1.000
    C9       C        0.43920    0.80180    0.71060    1.000
    C10      C        0.62060    0.89390    0.69900    1.000
    C11      C        0.68680    0.53980    0.78250    1.000
    C12      C        0.87270    0.63330    0.78660    1.000
    C13      C        0.09630    0.97500    0.90220    1.000
    C14      C        0.05350    0.97130    0.98540    1.000
    C15      C        0.43920    0.30180    0.78940    1.000
    C16      C        0.62060    0.39390    0.80100    1.000
    C17      C        0.68680    0.03980    0.71750    1.000
    C18      C        0.87270    0.13330    0.71340    1.000
    C19      C        0.90370    0.52500    0.40220    1.000
    C20      C        0.94650    0.52870    0.48540    1.000
    C21      C        0.56080    0.19820    0.28940    1.000
    C22      C        0.37940    0.10610    0.30100    1.000
    C23      C        0.31320    0.46020    0.21750    1.000
    C24      C        0.12730    0.36670    0.21340    1.000
    O1       O        0.96400    0.95390    0.14460    1.000
    O2       O        0.81360    0.09070    0.12150    1.000
    O3       O        0.66370    0.63980    0.22900    1.000
    O4       O        0.60310    0.83780    0.20320    1.000
    O5       O        0.02460    0.92470    0.30480    1.000
    O6       O        0.08870    0.73300    0.26880    1.000
    O7       O        0.03600    0.54610    0.64460    1.000
    O8       O        0.18640    0.40930    0.62150    1.000
    O9       O        0.33630    0.86020    0.72900    1.000
    O10      O        0.39690    0.66220    0.70320    1.000
    O11      O        0.97540    0.57530    0.80480    1.000
    O12      O        0.91130    0.76700    0.76880    1.000
    O13      O        0.03600    0.04610    0.85540    1.000
    O14      O        0.18640    0.90930    0.87850    1.000
    O15      O        0.33630    0.36020    0.77100    1.000
    O16      O        0.39690    0.16220    0.79680    1.000
    O17      O        0.97540    0.07530    0.69520    1.000
    O18      O        0.91130    0.26700    0.73120    1.000
    O19      O        0.96400    0.45390    0.35540    1.000
    O20      O        0.81360    0.59070    0.37850    1.000
    O21      O        0.66370    0.13980    0.27100    1.000
    O22      O        0.60310    0.33780    0.29680    1.000
    O23      O        0.02460    0.42470    0.19520    1.000
    O24      O        0.08870    0.23300    0.23120    1.000
    H1       H        0.88668    0.08301    0.97131    1.000
    H2       H        0.29015    0.65738    0.17374    1.000
    H3       H        0.40727    0.90908    0.26298    1.000
    H4       H        0.11332    0.41699    0.47131    1.000
    H5       H        0.70985    0.84262    0.67374    1.000
    H6       H        0.59273    0.59092    0.76298    1.000
    H7       H        0.11332    0.91699    0.02869    1.000
    H8       H        0.70594    0.33876    0.82639    1.000
    H9       H        0.59945    0.09753    0.73745    1.000
    H10      H        0.88190    0.58479    0.52527    1.000
    H11      H        0.29406    0.16124    0.32639    1.000
    H12      H        0.40055    0.40247    0.23745    1.000
