# CIF file generated by openbabel 2.4.1, see http://openbabel.sf.net
data_I
_chemical_name_common 'image0'
_cell_length_a 20.594
_cell_length_b 20.594
_cell_length_c 6.5304
_cell_angle_alpha 90
_cell_angle_beta 90
_cell_angle_gamma 120
_space_group_name_H-M_alt 'P 1'
_space_group_name_Hall 'P 1'
loop_
    _symmetry_equiv_pos_as_xyz
    x,y,z
loop_
    _atom_site_label
    _atom_site_type_symbol
    _atom_site_fract_x
    _atom_site_fract_y
    _atom_site_fract_z
    _atom_site_occupancy
    O1      O    0.44390   0.27690   0.80800   1.000
    O2      O    0.56470   0.29830   0.43000   1.000
    O3      O    0.52830   0.30290   0.44900   1.000
    O4      O    0.43380   0.27100   0.28800   1.000
    O5      O    0.72310   0.16700   0.80800   1.000
    O6      O    0.70170   0.26640   0.43000   1.000
    O7      O    0.69710   0.22540   0.44900   1.000
    O8      O    0.72900   0.16280   0.28800   1.000
    O9      O    0.83300   0.55610   0.80800   1.000
    O10     O    0.73360   0.43530   0.43000   1.000
    O11     O    0.77460   0.47170   0.44900   1.000
    O12     O    0.83720   0.56620   0.28800   1.000
    O13     O    0.44390   0.27690   0.69200   1.000
    O14     O    0.56470   0.29830   0.07000   1.000
    O15     O    0.52830   0.30290   0.05100   1.000
    O16     O    0.43380   0.27100   0.21200   1.000
    O17     O    0.72310   0.16700   0.69200   1.000
    O18     O    0.70170   0.26640   0.07000   1.000
    O19     O    0.69710   0.22540   0.05100   1.000
    O20     O    0.72900   0.16280   0.21200   1.000
    O21     O    0.83300   0.55610   0.69200   1.000
    O22     O    0.73360   0.43530   0.07000   1.000
    O23     O    0.77460   0.47170   0.05100   1.000
    O24     O    0.83720   0.56620   0.21200   1.000
    O25     O    0.27690   0.44390   0.19200   1.000
    O26     O    0.29830   0.56470   0.57000   1.000
    O27     O    0.30290   0.52830   0.55100   1.000
    O28     O    0.27100   0.43380   0.71200   1.000
    O29     O    0.16700   0.72310   0.19200   1.000
    O30     O    0.26640   0.70170   0.57000   1.000
    O31     O    0.22540   0.69710   0.55100   1.000
    O32     O    0.16280   0.72900   0.71200   1.000
    O33     O    0.55610   0.83300   0.19200   1.000
    O34     O    0.43530   0.73360   0.57000   1.000
    O35     O    0.47170   0.77460   0.55100   1.000
    O36     O    0.56620   0.83720   0.71200   1.000
    O37     O    0.27690   0.44390   0.30800   1.000
    O38     O    0.29830   0.56470   0.93000   1.000
    O39     O    0.30290   0.52830   0.94900   1.000
    O40     O    0.27100   0.43380   0.78800   1.000
    O41     O    0.16700   0.72310   0.30800   1.000
    O42     O    0.26640   0.70170   0.93000   1.000
    O43     O    0.22540   0.69710   0.94900   1.000
    O44     O    0.16280   0.72900   0.78800   1.000
    O45     O    0.55610   0.83300   0.30800   1.000
    O46     O    0.43530   0.73360   0.93000   1.000
    O47     O    0.47170   0.77460   0.94900   1.000
    O48     O    0.56620   0.83720   0.78800   1.000
    Co1     Co   0.55508   0.30242   0.75000   1.000
    Co2     Co   0.69758   0.25266   0.75000   1.000
    Co3     Co   0.74734   0.44492   0.75000   1.000
    Co4     Co   0.30242   0.55508   0.25000   1.000
    Co5     Co   0.25266   0.69758   0.25000   1.000
    Co6     Co   0.44492   0.74734   0.25000   1.000
    Co7     Co   0.66667   0.33333   0.25000   1.000
    Co8     Co   0.33333   0.66667   0.75000   1.000
    O49     O    0.66667   0.33333   0.68400   1.000
    H1      H    0.66667   0.33333   0.55510   1.000
    O50     O    0.66667   0.33333   0.81600   1.000
    H2      H    0.66667   0.33333   0.94490   1.000
    O51     O    0.33333   0.66667   0.31600   1.000
    H3      H    0.33333   0.66667   0.44490   1.000
    O52     O    0.33333   0.66667   0.18400   1.000
    H4      H    0.33333   0.66667   0.05510   1.000
    C1      C    0.47030   0.16540   0.25000   1.000
    C2      C    0.39680   0.11050   0.25000   1.000
    H5      H    0.35960   0.12500   0.25000   1.000
    C3      C    0.37370   0.03520   0.25000   1.000
    H6      H    0.32200   0.99840   0.25000   1.000
    C4      C    0.42990   0.01430   0.25000   1.000
    C5      C    0.50230   0.06820   0.25000   1.000
    H7      H    0.53940   0.05360   0.25000   1.000
    C6      C    0.52540   0.14270   0.25000   1.000
    H8      H    0.57730   0.17910   0.25000   1.000
    C7      C    0.33790   0.87510   0.25000   1.000
    H9      H    0.29370   0.87870   0.25000   1.000
    C8      C    0.45080   0.90450   0.25000   1.000
    H10     H    0.50410   0.93260   0.25000   1.000
    N1      N    0.40670   0.93450   0.25000   1.000
    N2      N    0.33740   0.81210   0.25000   1.000
    N3      N    0.41120   0.83110   0.25000   1.000
    P1      P    0.50400   0.26340   0.25000   1.000
    C9      C    0.83460   0.30490   0.25000   1.000
    C10     C    0.88950   0.28630   0.25000   1.000
    H11     H    0.87500   0.23460   0.25000   1.000
    C11     C    0.96480   0.33850   0.25000   1.000
    H12     H    0.00160   0.32360   0.25000   1.000
    C12     C    0.98570   0.41560   0.25000   1.000
    C13     C    0.93180   0.43410   0.25000   1.000
    H13     H    0.94640   0.48580   0.25000   1.000
    C14     C    0.85730   0.38270   0.25000   1.000
    H14     H    0.82090   0.39820   0.25000   1.000
    C15     C    0.12490   0.46280   0.25000   1.000
    H15     H    0.12130   0.41500   0.25000   1.000
    C16     C    0.09550   0.54630   0.25000   1.000
    H16     H    0.06740   0.57150   0.25000   1.000
    N4      N    0.06550   0.47220   0.25000   1.000
    N5      N    0.18790   0.52530   0.25000   1.000
    N6      N    0.16890   0.58010   0.25000   1.000
    P2      P    0.73660   0.24060   0.25000   1.000
    C17     C    0.69510   0.52970   0.25000   1.000
    C18     C    0.71370   0.60320   0.25000   1.000
    H17     H    0.76540   0.64040   0.25000   1.000
    C19     C    0.66150   0.62630   0.25000   1.000
    H18     H    0.67640   0.67800   0.25000   1.000
    C20     C    0.58440   0.57010   0.25000   1.000
    C21     C    0.56590   0.49770   0.25000   1.000
    H19     H    0.51420   0.46060   0.25000   1.000
    C22     C    0.61730   0.47460   0.25000   1.000
    H20     H    0.60180   0.42270   0.25000   1.000
    C23     C    0.53720   0.66210   0.25000   1.000
    H21     H    0.58500   0.70630   0.25000   1.000
    C24     C    0.45370   0.54920   0.25000   1.000
    H22     H    0.42850   0.49590   0.25000   1.000
    N7      N    0.52780   0.59330   0.25000   1.000
    N8      N    0.47470   0.66260   0.25000   1.000
    N9      N    0.41990   0.58880   0.25000   1.000
    P3      P    0.75940   0.49600   0.25000   1.000
    C25     C    0.16540   0.47030   0.75000   1.000
    C26     C    0.11050   0.39680   0.75000   1.000
    H23     H    0.12500   0.35960   0.75000   1.000
    C27     C    0.03520   0.37370   0.75000   1.000
    H24     H    0.99840   0.32200   0.75000   1.000
    C28     C    0.01430   0.42990   0.75000   1.000
    C29     C    0.06820   0.50230   0.75000   1.000
    H25     H    0.05360   0.53940   0.75000   1.000
    C30     C    0.14270   0.52540   0.75000   1.000
    H26     H    0.17910   0.57730   0.75000   1.000
    C31     C    0.87510   0.33790   0.75000   1.000
    H27     H    0.87870   0.29370   0.75000   1.000
    C32     C    0.90450   0.45080   0.75000   1.000
    H28     H    0.93260   0.50410   0.75000   1.000
    N10     N    0.93450   0.40670   0.75000   1.000
    N11     N    0.81210   0.33740   0.75000   1.000
    N12     N    0.83110   0.41120   0.75000   1.000
    P4      P    0.26340   0.50400   0.75000   1.000
    C33     C    0.30490   0.83460   0.75000   1.000
    C34     C    0.28630   0.88950   0.75000   1.000
    H29     H    0.23460   0.87500   0.75000   1.000
    C35     C    0.33850   0.96480   0.75000   1.000
    H30     H    0.32360   0.00160   0.75000   1.000
    C36     C    0.41560   0.98570   0.75000   1.000
    C37     C    0.43410   0.93180   0.75000   1.000
    H31     H    0.48580   0.94640   0.75000   1.000
    C38     C    0.38270   0.85730   0.75000   1.000
    H32     H    0.39820   0.82090   0.75000   1.000
    C39     C    0.46280   0.12490   0.75000   1.000
    H33     H    0.41500   0.12130   0.75000   1.000
    C40     C    0.54630   0.09550   0.75000   1.000
    H34     H    0.57150   0.06740   0.75000   1.000
    N13     N    0.47220   0.06550   0.75000   1.000
    N14     N    0.52530   0.18790   0.75000   1.000
    N15     N    0.58010   0.16890   0.75000   1.000
    P5      P    0.24060   0.73660   0.75000   1.000
    C41     C    0.52970   0.69510   0.75000   1.000
    C42     C    0.60320   0.71370   0.75000   1.000
    H35     H    0.64040   0.76540   0.75000   1.000
    C43     C    0.62630   0.66150   0.75000   1.000
    H36     H    0.67800   0.67640   0.75000   1.000
    C44     C    0.57010   0.58440   0.75000   1.000
    C45     C    0.49770   0.56590   0.75000   1.000
    H37     H    0.46060   0.51420   0.75000   1.000
    C46     C    0.47460   0.61730   0.75000   1.000
    H38     H    0.42270   0.60180   0.75000   1.000
    C47     C    0.66210   0.53720   0.75000   1.000
    H39     H    0.70630   0.58500   0.75000   1.000
    C48     C    0.54920   0.45370   0.75000   1.000
    H40     H    0.49590   0.42850   0.75000   1.000
    N16     N    0.59330   0.52780   0.75000   1.000
    N17     N    0.66260   0.47470   0.75000   1.000
    N18     N    0.58880   0.41990   0.75000   1.000
    P6      P    0.49600   0.75940   0.75000   1.000
