# CIF file generated by openbabel 2.4.1, see http://openbabel.sf.net
data_I
_chemical_name_common 'image0'
_cell_length_a 4.9693
_cell_length_b 12.0013
_cell_length_c 10.744
_cell_angle_alpha 90
_cell_angle_beta 94.0583
_cell_angle_gamma 90
_space_group_name_H-M_alt 'P 1'
_space_group_name_Hall 'P 1'
loop_
    _symmetry_equiv_pos_as_xyz
    x,y,z
loop_
    _atom_site_label
    _atom_site_type_symbol
    _atom_site_fract_x
    _atom_site_fract_y
    _atom_site_fract_z
    _atom_site_occupancy
    P1      P    0.52090   0.51311   0.18230   1.000
    F1      F    0.04720   0.35120   0.96780   1.000
    O1      O    0.70760   0.45550   0.09660   1.000
    O2      O    0.55540   0.64000   0.18280   1.000
    O3      O    0.23340   0.48130   0.14540   1.000
    C1      C    0.44770   0.52350   0.43770   1.000
    C2      C    0.60570   0.46690   0.34170   1.000
    P2      P    0.47910   0.01311   0.81770   1.000
    F2      F    0.95280   0.85120   0.03220   1.000
    O4      O    0.29240   0.95550   0.90340   1.000
    O5      O    0.44460   0.14000   0.81720   1.000
    O6      O    0.76660   0.98130   0.85460   1.000
    C3      C    0.55230   0.02350   0.56230   1.000
    C4      C    0.39430   0.96690   0.65830   1.000
    P3      P    0.47910   0.48689   0.81770   1.000
    F3      F    0.95280   0.64880   0.03220   1.000
    O7      O    0.29240   0.54450   0.90340   1.000
    O8      O    0.44460   0.36000   0.81720   1.000
    O9      O    0.76660   0.51870   0.85460   1.000
    C5      C    0.55230   0.47650   0.56230   1.000
    C6      C    0.39430   0.53310   0.65830   1.000
    P4      P    0.52090   0.98689   0.18230   1.000
    F4      F    0.04720   0.14880   0.96780   1.000
    O10     O    0.70760   0.04450   0.09660   1.000
    O11     O    0.55540   0.86000   0.18280   1.000
    O12     O    0.23340   0.01870   0.14540   1.000
    C7      C    0.44770   0.97650   0.43770   1.000
    C8      C    0.60570   0.03310   0.34170   1.000
    Al1     Al   0.00000   0.50000   0.00000   1.000
    Al2     Al   0.00000   0.00000   0.00000   1.000
    Al3     Al   0.24770   0.25000   0.89020   1.000
    Al4     Al   0.75230   0.75000   0.10980   1.000
