data_functionalizedCrystal
_audit_creation_method	'EQeq! by Chris Wilmer'
_symmetry_space_group_name_H-M	'P1'
_symmetry_Int_Tables_number	1
_symmetry_cell_setting	triclinic
loop_
_symmetry_equiv_pos_as_xyz
  x,y,z
_cell_length_a	14.9367
_cell_length_b	14.9367
_cell_length_c	19.1785
_cell_angle_alpha	90
_cell_angle_beta	90
_cell_angle_gamma	90
loop_
_atom_site_label
_atom_site_type_symbol
_atom_site_fract_x
_atom_site_fract_y
_atom_site_fract_z
_atom_site_charge
Mof_O 	O 	0.13351	0.1832	0.31823	-0.455
Mof_O 	O 	0.12093	0.21415	0.20425	-0.459
Mof_C 	C 	0.09639	0.17571	0.25946	0.373
Mof_C 	C 	0.01788	0.11347	0.25498	-0.075
Mof_C 	C 	0.9798	0.0778	0.31518	-0.012
Mof_H 	H 	0.999	0.098	0.3597	0.049
Mof_C 	C 	0.987	0.0859	0.1899	-0.014
Mof_H 	H 	0.0106	0.1124	0.1488	0.047
Mof_C 	C 	0.196	0.1761	0.4704	0.019
Mof_H 	H 	0.2208	0.1186	0.4532	0.035
Mof_H 	H 	0.134	0.1816	0.453	0.014
Mof_C 	C 	0.1618	0.235	0.4711	-0.059
Mof_H 	H 	0.1402	0.1753	0.4553	0.02
Mof_C 	C 	0.196	0.1763	0.5499	0.013
Mof_H 	H 	0.2202	0.1188	0.5672	0.013
Mof_H 	H 	0.1338	0.1822	0.567	0.034
Mof_C 	C 	0.262	0.1611	0.55	-0.054
Mof_H 	H 	0.2124	0.1224	0.5658	0.018
Mof_O 	O 	0.36649	0.3168	0.31823	-0.456
Mof_O 	O 	0.37907	0.28585	0.20425	-0.46
Mof_C 	C 	0.40361	0.32429	0.25946	0.372
Mof_C 	C 	0.48212	0.38653	0.25498	-0.076
Mof_C 	C 	0.5202	0.4222	0.31518	-0.014
Mof_H 	H 	0.501	0.402	0.3597	0.048
Mof_C 	C 	0.513	0.4141	0.1899	-0.014
Mof_H 	H 	0.4894	0.3876	0.1488	0.046
Mof_C 	C 	0.304	0.3239	0.4704	0.018
Mof_H 	H 	0.2792	0.3814	0.4532	0.034
Mof_H 	H 	0.366	0.3184	0.453	0.013
Mof_C 	C 	0.3382	0.265	0.4711	-0.06
Mof_H 	H 	0.3598	0.3247	0.4553	0.019
Mof_C 	C 	0.304	0.3237	0.5499	0.012
Mof_H 	H 	0.2798	0.3812	0.5672	0.012
Mof_H 	H 	0.3662	0.3178	0.567	0.033
Mof_C 	C 	0.238	0.3389	0.55	-0.054
Mof_H 	H 	0.2876	0.3776	0.5658	0.018
Mof_O 	O 	0.3168	0.13351	0.31823	-0.456
Mof_O 	O 	0.28585	0.12093	0.20425	-0.46
Mof_C 	C 	0.32429	0.09639	0.25946	0.372
Mof_C 	C 	0.38653	0.01788	0.25498	-0.076
Mof_C 	C 	0.4222	0.9798	0.31518	-0.014
Mof_H 	H 	0.402	0.999	0.3597	0.048
Mof_C 	C 	0.4141	0.987	0.1899	-0.014
Mof_H 	H 	0.3876	0.0106	0.1488	0.046
Mof_C 	C 	0.3239	0.196	0.4704	0.018
Mof_H 	H 	0.3814	0.2208	0.4532	0.034
Mof_H 	H 	0.3184	0.134	0.453	0.013
Mof_C 	C 	0.265	0.1618	0.4711	-0.06
Mof_H 	H 	0.3247	0.1402	0.4553	0.019
Mof_C 	C 	0.3237	0.196	0.5499	0.012
Mof_H 	H 	0.3812	0.2202	0.5672	0.012
Mof_H 	H 	0.3178	0.1338	0.567	0.033
Mof_C 	C 	0.3389	0.262	0.55	-0.054
Mof_H 	H 	0.3776	0.2124	0.5658	0.018
Mof_O 	O 	0.1832	0.36649	0.31823	-0.456
Mof_O 	O 	0.21415	0.37907	0.20425	-0.46
Mof_C 	C 	0.17571	0.40361	0.25946	0.372
Mof_C 	C 	0.11347	0.48212	0.25498	-0.076
Mof_C 	C 	0.0778	0.5202	0.31518	-0.013
Mof_H 	H 	0.098	0.501	0.3597	0.048
Mof_C 	C 	0.0859	0.513	0.1899	-0.014
Mof_H 	H 	0.1124	0.4894	0.1488	0.046
Mof_C 	C 	0.1761	0.304	0.4704	0.018
Mof_H 	H 	0.1186	0.2792	0.4532	0.034
Mof_H 	H 	0.1816	0.366	0.453	0.013
Mof_C 	C 	0.235	0.3382	0.4711	-0.06
Mof_H 	H 	0.1753	0.3598	0.4553	0.019
Mof_C 	C 	0.1763	0.304	0.5499	0.012
Mof_H 	H 	0.1188	0.2798	0.5672	0.012
Mof_H 	H 	0.1822	0.3662	0.567	0.033
Mof_C 	C 	0.1611	0.238	0.55	-0.054
Mof_H 	H 	0.1224	0.2876	0.5658	0.018
Mof_O 	O 	0.86649	0.6832	0.18177	-0.456
Mof_O 	O 	0.87907	0.71415	0.29575	-0.46
Mof_C 	C 	0.90361	0.67571	0.24054	0.372
Mof_C 	C 	0.98212	0.61347	0.24502	-0.075
Mof_C 	C 	0.0202	0.5778	0.18482	-0.014
Mof_H 	H 	0.001	0.598	0.1403	0.048
Mof_C 	C 	0.013	0.5859	0.3101	-0.015
Mof_H 	H 	0.9894	0.6124	0.3512	0.047
Mof_C 	C 	0.804	0.6761	0.0296	0.018
Mof_H 	H 	0.7792	0.6186	0.0468	0.034
Mof_H 	H 	0.866	0.6816	0.047	0.013
Mof_C 	C 	0.8382	0.735	0.0289	-0.06
Mof_H 	H 	0.8598	0.6753	0.0447	0.019
Mof_C 	C 	0.804	0.6763	0.9501	0.012
Mof_H 	H 	0.7798	0.6188	0.9328	0.012
Mof_H 	H 	0.8662	0.6822	0.933	0.033
Mof_C 	C 	0.738	0.6611	0.95	-0.054
Mof_H 	H 	0.7876	0.6224	0.9342	0.018
Mof_O 	O 	0.63351	0.8168	0.18177	-0.456
Mof_O 	O 	0.62093	0.78585	0.29575	-0.46
Mof_C 	C 	0.59639	0.82429	0.24054	0.372
Mof_C 	C 	0.51788	0.88653	0.24502	-0.076
Mof_C 	C 	0.4798	0.9222	0.18482	-0.014
Mof_H 	H 	0.499	0.902	0.1403	0.048
Mof_C 	C 	0.487	0.9141	0.3101	-0.015
Mof_H 	H 	0.5106	0.8876	0.3512	0.046
Mof_C 	C 	0.696	0.8239	0.0296	0.018
Mof_H 	H 	0.7208	0.8814	0.0468	0.034
Mof_H 	H 	0.634	0.8184	0.047	0.013
Mof_C 	C 	0.6618	0.765	0.0289	-0.06
Mof_H 	H 	0.6402	0.8247	0.0447	0.019
Mof_C 	C 	0.696	0.8237	0.9501	0.012
Mof_H 	H 	0.7202	0.8812	0.9328	0.012
Mof_H 	H 	0.6338	0.8178	0.933	0.033
Mof_C 	C 	0.762	0.8389	0.95	-0.054
Mof_H 	H 	0.7124	0.8776	0.9342	0.018
Mof_O 	O 	0.6832	0.63351	0.18177	-0.456
Mof_O 	O 	0.71415	0.62093	0.29575	-0.46
Mof_C 	C 	0.67571	0.59639	0.24054	0.372
Mof_C 	C 	0.61347	0.51788	0.24502	-0.076
Mof_C 	C 	0.5778	0.4798	0.18482	-0.014
Mof_H 	H 	0.598	0.499	0.1403	0.048
Mof_C 	C 	0.5859	0.487	0.3101	-0.014
Mof_H 	H 	0.6124	0.5106	0.3512	0.046
Mof_C 	C 	0.6761	0.696	0.0296	0.018
Mof_H 	H 	0.6186	0.7208	0.0468	0.034
Mof_H 	H 	0.6816	0.634	0.047	0.013
Mof_C 	C 	0.735	0.6618	0.0289	-0.06
Mof_H 	H 	0.6753	0.6402	0.0447	0.019
Mof_C 	C 	0.6763	0.696	0.9501	0.012
Mof_H 	H 	0.6188	0.7202	0.9328	0.012
Mof_H 	H 	0.6822	0.6338	0.933	0.033
Mof_C 	C 	0.6611	0.762	0.95	-0.054
Mof_H 	H 	0.6224	0.7124	0.9342	0.018
Mof_O 	O 	0.8168	0.86649	0.18177	-0.456
Mof_O 	O 	0.78585	0.87907	0.29575	-0.46
Mof_C 	C 	0.82429	0.90361	0.24054	0.372
Mof_C 	C 	0.88653	0.98212	0.24502	-0.075
Mof_C 	C 	0.9222	0.0202	0.18482	-0.014
Mof_H 	H 	0.902	0.001	0.1403	0.048
Mof_C 	C 	0.9141	0.013	0.3101	-0.016
Mof_H 	H 	0.8876	0.9894	0.3512	0.047
Mof_C 	C 	0.8239	0.804	0.0296	0.018
Mof_H 	H 	0.8814	0.7792	0.0468	0.034
Mof_H 	H 	0.8184	0.866	0.047	0.013
Mof_C 	C 	0.765	0.8382	0.0289	-0.06
Mof_H 	H 	0.8247	0.8598	0.0447	0.019
Mof_C 	C 	0.8237	0.804	0.9501	0.012
Mof_H 	H 	0.8812	0.7798	0.9328	0.012
Mof_H 	H 	0.8178	0.8662	0.933	0.033
Mof_C 	C 	0.8389	0.738	0.95	-0.054
Mof_H 	H 	0.8776	0.7876	0.9342	0.018
Mof_O 	O 	0.86649	0.8168	0.68177	-0.456
Mof_O 	O 	0.87907	0.78585	0.79575	-0.46
Mof_C 	C 	0.90361	0.82429	0.74054	0.372
Mof_C 	C 	0.98212	0.88653	0.74502	-0.076
Mof_C 	C 	0.0202	0.9222	0.68482	-0.013
Mof_H 	H 	0.001	0.902	0.6403	0.048
Mof_C 	C 	0.013	0.9141	0.8101	-0.015
Mof_H 	H 	0.9894	0.8876	0.8512	0.046
Mof_C 	C 	0.804	0.8239	0.5296	0.018
Mof_H 	H 	0.7792	0.8814	0.5468	0.034
Mof_H 	H 	0.866	0.8184	0.547	0.013
Mof_C 	C 	0.8382	0.765	0.5289	-0.06
Mof_H 	H 	0.8598	0.8247	0.5447	0.019
Mof_C 	C 	0.804	0.8237	0.4501	0.012
Mof_H 	H 	0.7798	0.8812	0.4328	0.012
Mof_H 	H 	0.8662	0.8178	0.433	0.033
Mof_C 	C 	0.738	0.8389	0.45	-0.054
Mof_H 	H 	0.7876	0.8776	0.4342	0.018
Mof_O 	O 	0.63351	0.6832	0.68177	-0.456
Mof_O 	O 	0.62093	0.71415	0.79575	-0.46
Mof_C 	C 	0.59639	0.67571	0.74054	0.372
Mof_C 	C 	0.51788	0.61347	0.74502	-0.076
Mof_C 	C 	0.4798	0.5778	0.68482	-0.014
Mof_H 	H 	0.499	0.598	0.6403	0.048
Mof_C 	C 	0.487	0.5859	0.8101	-0.014
Mof_H 	H 	0.5106	0.6124	0.8512	0.046
Mof_C 	C 	0.696	0.6761	0.5296	0.018
Mof_H 	H 	0.7208	0.6186	0.5468	0.034
Mof_H 	H 	0.634	0.6816	0.547	0.013
Mof_C 	C 	0.6618	0.735	0.5289	-0.06
Mof_H 	H 	0.6402	0.6753	0.5447	0.019
Mof_C 	C 	0.696	0.6763	0.4501	0.012
Mof_H 	H 	0.7202	0.6188	0.4328	0.012
Mof_H 	H 	0.6338	0.6822	0.433	0.033
Mof_C 	C 	0.762	0.6611	0.45	-0.054
Mof_H 	H 	0.7124	0.6224	0.4342	0.018
Mof_O 	O 	0.6832	0.86649	0.68177	-0.456
Mof_O 	O 	0.71415	0.87907	0.79575	-0.46
Mof_C 	C 	0.67571	0.90361	0.74054	0.372
Mof_C 	C 	0.61347	0.98212	0.74502	-0.076
Mof_C 	C 	0.5778	0.0202	0.68482	-0.014
Mof_H 	H 	0.598	0.001	0.6403	0.048
Mof_C 	C 	0.5859	0.013	0.8101	-0.014
Mof_H 	H 	0.6124	0.9894	0.8512	0.046
Mof_C 	C 	0.6761	0.804	0.5296	0.018
Mof_H 	H 	0.6186	0.7792	0.5468	0.034
Mof_H 	H 	0.6816	0.866	0.547	0.013
Mof_C 	C 	0.735	0.8382	0.5289	-0.06
Mof_H 	H 	0.6753	0.8598	0.5447	0.019
Mof_C 	C 	0.6763	0.804	0.4501	0.012
Mof_H 	H 	0.6188	0.7798	0.4328	0.012
Mof_H 	H 	0.6822	0.8662	0.433	0.033
Mof_C 	C 	0.6611	0.738	0.45	-0.054
Mof_H 	H 	0.6224	0.7876	0.4342	0.018
Mof_O 	O 	0.8168	0.63351	0.68177	-0.456
Mof_O 	O 	0.78585	0.62093	0.79575	-0.46
Mof_C 	C 	0.82429	0.59639	0.74054	0.372
Mof_C 	C 	0.88653	0.51788	0.74502	-0.076
Mof_C 	C 	0.9222	0.4798	0.68482	-0.013
Mof_H 	H 	0.902	0.499	0.6403	0.048
Mof_C 	C 	0.9141	0.487	0.8101	-0.014
Mof_H 	H 	0.8876	0.5106	0.8512	0.046
Mof_C 	C 	0.8239	0.696	0.5296	0.018
Mof_H 	H 	0.8814	0.7208	0.5468	0.034
Mof_H 	H 	0.8184	0.634	0.547	0.013
Mof_C 	C 	0.765	0.6618	0.5289	-0.06
Mof_H 	H 	0.8247	0.6402	0.5447	0.019
Mof_C 	C 	0.8237	0.696	0.4501	0.012
Mof_H 	H 	0.8812	0.7202	0.4328	0.012
Mof_H 	H 	0.8178	0.6338	0.433	0.033
Mof_C 	C 	0.8389	0.762	0.45	-0.054
Mof_H 	H 	0.8776	0.7124	0.4342	0.018
Mof_O 	O 	0.13351	0.3168	0.81823	-0.456
Mof_O 	O 	0.12093	0.28585	0.70425	-0.46
Mof_C 	C 	0.09639	0.32429	0.75946	0.372
Mof_C 	C 	0.01788	0.38653	0.75498	-0.075
Mof_C 	C 	0.9798	0.4222	0.81518	-0.014
Mof_H 	H 	0.999	0.402	0.8597	0.048
Mof_C 	C 	0.987	0.4141	0.6899	-0.015
Mof_H 	H 	0.0106	0.3876	0.6488	0.047
Mof_C 	C 	0.196	0.3239	0.9704	0.018
Mof_H 	H 	0.2208	0.3814	0.9532	0.034
Mof_H 	H 	0.134	0.3184	0.953	0.013
Mof_C 	C 	0.1618	0.265	0.9711	-0.06
Mof_H 	H 	0.1402	0.3247	0.9553	0.019
Mof_C 	C 	0.196	0.3237	0.0499	0.012
Mof_H 	H 	0.2202	0.3812	0.0672	0.012
Mof_H 	H 	0.1338	0.3178	0.067	0.033
Mof_C 	C 	0.262	0.3389	0.05	-0.054
Mof_H 	H 	0.2124	0.3776	0.0658	0.018
Mof_O 	O 	0.36649	0.1832	0.81823	-0.456
Mof_O 	O 	0.37907	0.21415	0.70425	-0.46
Mof_C 	C 	0.40361	0.17571	0.75946	0.372
Mof_C 	C 	0.48212	0.11347	0.75498	-0.076
Mof_C 	C 	0.5202	0.0778	0.81518	-0.014
Mof_H 	H 	0.501	0.098	0.8597	0.048
Mof_C 	C 	0.513	0.0859	0.6899	-0.015
Mof_H 	H 	0.4894	0.1124	0.6488	0.046
Mof_C 	C 	0.304	0.1761	0.9704	0.018
Mof_H 	H 	0.2792	0.1186	0.9532	0.034
Mof_H 	H 	0.366	0.1816	0.953	0.013
Mof_C 	C 	0.3382	0.235	0.9711	-0.06
Mof_H 	H 	0.3598	0.1753	0.9553	0.019
Mof_C 	C 	0.304	0.1763	0.0499	0.012
Mof_H 	H 	0.2798	0.1188	0.0672	0.012
Mof_H 	H 	0.3662	0.1822	0.067	0.033
Mof_C 	C 	0.238	0.1611	0.05	-0.054
Mof_H 	H 	0.2876	0.1224	0.0658	0.018
Mof_O 	O 	0.3168	0.36649	0.81823	-0.456
Mof_O 	O 	0.28585	0.37907	0.70425	-0.46
Mof_C 	C 	0.32429	0.40361	0.75946	0.372
Mof_C 	C 	0.38653	0.48212	0.75498	-0.076
Mof_C 	C 	0.4222	0.5202	0.81518	-0.014
Mof_H 	H 	0.402	0.501	0.8597	0.048
Mof_C 	C 	0.4141	0.513	0.6899	-0.014
Mof_H 	H 	0.3876	0.4894	0.6488	0.046
Mof_C 	C 	0.3239	0.304	0.9704	0.018
Mof_H 	H 	0.3814	0.2792	0.9532	0.034
Mof_H 	H 	0.3184	0.366	0.953	0.013
Mof_C 	C 	0.265	0.3382	0.9711	-0.06
Mof_H 	H 	0.3247	0.3598	0.9553	0.019
Mof_C 	C 	0.3237	0.304	0.0499	0.012
Mof_H 	H 	0.3812	0.2798	0.0672	0.012
Mof_H 	H 	0.3178	0.3662	0.067	0.033
Mof_C 	C 	0.3389	0.238	0.05	-0.054
Mof_H 	H 	0.3776	0.2876	0.0658	0.018
Mof_O 	O 	0.1832	0.13351	0.81823	-0.456
Mof_O 	O 	0.21415	0.12093	0.70425	-0.46
Mof_C 	C 	0.17571	0.09639	0.75946	0.372
Mof_C 	C 	0.11347	0.01788	0.75498	-0.075
Mof_C 	C 	0.0778	0.9798	0.81518	-0.014
Mof_H 	H 	0.098	0.999	0.8597	0.048
Mof_C 	C 	0.0859	0.987	0.6899	-0.016
Mof_H 	H 	0.1124	0.0106	0.6488	0.047
Mof_C 	C 	0.1761	0.196	0.9704	0.018
Mof_H 	H 	0.1186	0.2208	0.9532	0.034
Mof_H 	H 	0.1816	0.134	0.953	0.013
Mof_C 	C 	0.235	0.1618	0.9711	-0.06
Mof_H 	H 	0.1753	0.1402	0.9553	0.019
Mof_C 	C 	0.1763	0.196	0.0499	0.012
Mof_H 	H 	0.1188	0.2202	0.0672	0.012
Mof_H 	H 	0.1822	0.1338	0.067	0.033
Mof_C 	C 	0.1611	0.262	0.05	-0.054
Mof_H 	H 	0.1224	0.2124	0.0658	0.018
Mof_Zn	Zn	0.25	0.25	0.33713	1.213
Mof_Zn	Zn	0.25	0.25	0.18405	1.211
Mof_N 	N 	0.25	0.25	0.4436	-0.195
Mof_N 	N 	0.25	0.25	0.5774	-0.197
Mof_Zn	Zn	0.75	0.75	0.16287	1.213
Mof_Zn	Zn	0.75	0.75	0.31595	1.211
Mof_N 	N 	0.75	0.75	0.0564	-0.196
Mof_N 	N 	0.75	0.75	0.9226	-0.197
Mof_Zn	Zn	0.75	0.75	0.66287	1.213
Mof_Zn	Zn	0.75	0.75	0.81595	1.211
Mof_N 	N 	0.75	0.75	0.5564	-0.195
Mof_N 	N 	0.75	0.75	0.4226	-0.197
Mof_Zn	Zn	0.25	0.25	0.83713	1.213
Mof_Zn	Zn	0.25	0.25	0.68405	1.211
Mof_N 	N 	0.25	0.25	0.9436	-0.196
Mof_N 	N 	0.25	0.25	0.0774	-0.197
_end
