data_functionalizedCrystal
_audit_creation_method	'EQeq! by Chris Wilmer'
_symmetry_space_group_name_H-M	'P1'
_symmetry_Int_Tables_number	1
_symmetry_cell_setting	triclinic
loop_
_symmetry_equiv_pos_as_xyz
  x,y,z
_cell_length_a	20.96
_cell_length_b	11.53
_cell_length_c	14.211
_cell_angle_alpha	90
_cell_angle_beta	116.24
_cell_angle_gamma	90
loop_
_atom_site_label
_atom_site_type_symbol
_atom_site_fract_x
_atom_site_fract_y
_atom_site_fract_z
_atom_site_charge
Mof_C 	C 	0.3063	0.9009	0.2135	0.321
Mof_C 	C 	0.3623	0.8285	0.2696	-0.045
Mof_C 	C 	0.3543	0.7061	0.2542	-0.124
Mof_H 	H 	0.3115	0.6767	0.2035	0.078
Mof_C 	C 	0.4098	0.6282	0.3141	0.161
Mof_C 	C 	0.4731	0.6759	0.3924	-0.166
Mof_C 	C 	0.5319	0.5956	0.4616	0.365
Mof_C 	C 	0.4802	0.7921	0.4028	0.053
Mof_H 	H 	0.5224	0.8221	0.4542	0.02
Mof_C 	C 	0.429	0.8669	0.3422	-0.076
Mof_H 	H 	0.4385	0.9461	0.3491	0.066
Mof_C 	C 	0.7025	0.3728	0.7713	0.09
Mof_H 	H 	0.7507	0.3661	0.789	-0
Mof_C 	C 	0.5889	0.4054	0.6974	-0.035
Mof_H 	H 	0.5446	0.4338	0.6508	0.041
Mof_C 	C 	0.6008	0.3364	0.7745	0.028
Mof_H 	H 	0.5665	0.3043	0.7915	0.029
Mof_C 	C 	0.7005	0.2341	0.9146	-0.14
Mof_H 	H 	0.7515	0.2467	0.9515	0.08
Mof_H 	H 	0.6805	0.2467	0.9636	0.08
Mof_C 	C 	0.6862	0.1117	0.8745	0.029
Mof_C 	C 	0.7269	0.0605	0.8308	-0.064
Mof_H 	H 	0.7646	0.101	0.8287	0.044
Mof_C 	C 	0.7113	0.9487	0.7904	-0.101
Mof_H 	H 	0.7386	0.9145	0.7612	0.056
Mof_C 	C 	0.655	0.8882	0.7936	0.025
Mof_C 	C 	0.6142	0.9394	0.8373	-0.022
Mof_H 	H 	0.5765	0.8989	0.8394	0.037
Mof_C 	C 	0.6298	0.0512	0.8777	-0.071
Mof_H 	H 	0.6025	0.0854	0.9069	0.052
Mof_C 	C 	0.6346	0.762	0.7587	-0.103
Mof_H 	H 	0.5832	0.7538	0.7278	0.064
Mof_H 	H 	0.6501	0.7421	0.7058	0.064
Mof_C 	C 	0.744	0.6497	0.8979	-0.065
Mof_H 	H 	0.7798	0.6722	0.8799	0.065
Mof_C 	C 	0.7507	0.5781	0.977	0.082
Mof_H 	H 	0.7926	0.5418	0.0227	-0.013
Mof_C 	C 	0.6425	0.6313	0.8971	0.1
Mof_H 	H 	0.5944	0.6338	0.8807	-0
Mof_Co	Co	0.67055	0.52565	0.58687	1.152
Mof_N 	N 	0.3988	0.5173	0.3278	-0.305
Mof_H 	H 	0.4343	0.4744	0.3283	0.166
Mof_H 	H 	0.3584	0.5107	0.3337	0.143
Mof_N 	N 	0.6575	0.4321	0.6946	-0.25
Mof_N 	N 	0.6679	0.3197	0.8239	-0.113
Mof_N 	N 	0.6659	0.6864	0.844	-0.109
Mof_N 	N 	0.6884	0.5674	0.9797	-0.255
Mof_O 	O 	0.317	0.009	0.2148	-0.311
Mof_O 	O 	0.2465	0.8609	0.1545	-0.447
Mof_O 	O 	0.5909	0.6417	0.5182	-0.437
Mof_O 	O 	0.5291	0.4893	0.4507	-0.344
Mof_C 	C 	0.6842	0.1117	0.8723	0.028
Mof_C 	C 	0.6892	0.0702	0.7839	-0.012
Mof_C 	C 	0.6718	0.9555	0.7529	0.027
Mof_C 	C 	0.6496	0.8823	0.8103	0.01
Mof_C 	C 	0.6446	0.9238	0.8987	-0.043
Mof_C 	C 	0.6619	0.0385	0.9297	-0.015
Mof_H 	H 	0.7041	0.1192	0.7455	0.035
Mof_H 	H 	0.6752	0.9278	0.6938	0.02
Mof_H 	H 	0.6297	0.8748	0.9371	0.044
Mof_H 	H 	0.6586	0.0662	0.9888	0.031
Mof_C 	C 	0.8063	0.4009	0.2135	0.319
Mof_C 	C 	0.8623	0.3285	0.2696	-0.041
Mof_C 	C 	0.8543	0.2061	0.2542	-0.126
Mof_H 	H 	0.8115	0.1767	0.2035	0.079
Mof_C 	C 	0.9098	0.1282	0.3141	0.163
Mof_C 	C 	0.9731	0.1759	0.3924	-0.166
Mof_C 	C 	0.0319	0.0956	0.4616	0.362
Mof_C 	C 	0.9802	0.2921	0.4028	0.065
Mof_H 	H 	0.0224	0.3221	0.4542	0.013
Mof_C 	C 	0.929	0.3669	0.3422	-0.083
Mof_H 	H 	0.9385	0.4461	0.3491	0.07
Mof_C 	C 	0.2025	0.8728	0.7713	0.091
Mof_H 	H 	0.2507	0.8661	0.789	-0
Mof_C 	C 	0.0889	0.9054	0.6974	-0.035
Mof_H 	H 	0.0446	0.9338	0.6508	0.04
Mof_C 	C 	0.1008	0.8364	0.7745	0.028
Mof_H 	H 	0.0665	0.8043	0.7915	0.028
Mof_C 	C 	0.2005	0.7341	0.9146	-0.139
Mof_H 	H 	0.2515	0.7467	0.9515	0.08
Mof_H 	H 	0.1805	0.7467	0.9636	0.081
Mof_C 	C 	0.1862	0.6117	0.8745	0.029
Mof_C 	C 	0.2269	0.5605	0.8308	-0.063
Mof_H 	H 	0.2646	0.601	0.8287	0.044
Mof_C 	C 	0.2113	0.4487	0.7904	-0.102
Mof_H 	H 	0.2386	0.4145	0.7612	0.056
Mof_C 	C 	0.155	0.3882	0.7936	0.026
Mof_C 	C 	0.1142	0.4394	0.8373	-0.024
Mof_H 	H 	0.0765	0.3989	0.8394	0.037
Mof_C 	C 	0.1298	0.5512	0.8777	-0.07
Mof_H 	H 	0.1025	0.5854	0.9069	0.051
Mof_C 	C 	0.1346	0.262	0.7587	-0.103
Mof_H 	H 	0.0832	0.2538	0.7278	0.063
Mof_H 	H 	0.1501	0.2421	0.7058	0.064
Mof_C 	C 	0.244	0.1497	0.8979	-0.062
Mof_H 	H 	0.2798	0.1722	0.8799	0.063
Mof_C 	C 	0.2507	0.0781	0.977	0.076
Mof_H 	H 	0.2926	0.0418	0.0227	-0.009
Mof_C 	C 	0.1425	0.1313	0.8971	0.099
Mof_H 	H 	0.0944	0.1338	0.8807	-0.001
Mof_Co	Co	0.17055	0.02565	0.58687	1.152
Mof_N 	N 	0.8988	0.0173	0.3278	-0.305
Mof_H 	H 	0.9343	0.9744	0.3283	0.167
Mof_H 	H 	0.8584	0.0107	0.3337	0.143
Mof_N 	N 	0.1575	0.9321	0.6946	-0.25
Mof_N 	N 	0.1679	0.8197	0.8239	-0.113
Mof_N 	N 	0.1659	0.1864	0.844	-0.11
Mof_N 	N 	0.1884	0.0674	0.9797	-0.255
Mof_O 	O 	0.817	0.509	0.2148	-0.311
Mof_O 	O 	0.7465	0.3609	0.1545	-0.447
Mof_O 	O 	0.0909	0.1417	0.5182	-0.437
Mof_O 	O 	0.0291	0.9893	0.4507	-0.345
Mof_C 	C 	0.1842	0.6117	0.8723	0.028
Mof_C 	C 	0.1892	0.5702	0.7839	-0.011
Mof_C 	C 	0.1718	0.4555	0.7529	0.025
Mof_C 	C 	0.1496	0.3823	0.8103	0.011
Mof_C 	C 	0.1446	0.4238	0.8987	-0.043
Mof_C 	C 	0.1619	0.5385	0.9297	-0.014
Mof_H 	H 	0.2041	0.6192	0.7455	0.034
Mof_H 	H 	0.1752	0.4278	0.6938	0.02
Mof_H 	H 	0.1297	0.3748	0.9371	0.043
Mof_H 	H 	0.1586	0.5662	0.9888	0.031
Mof_C 	C 	0.3063	0.0991	0.7135	0.317
Mof_C 	C 	0.3623	0.1715	0.7696	-0.039
Mof_C 	C 	0.3543	0.2939	0.7542	-0.128
Mof_H 	H 	0.3115	0.3233	0.7035	0.083
Mof_C 	C 	0.4098	0.3718	0.8141	0.168
Mof_C 	C 	0.4731	0.3241	0.8924	-0.173
Mof_C 	C 	0.5319	0.4044	0.9616	0.389
Mof_C 	C 	0.4802	0.2079	0.9028	0.061
Mof_H 	H 	0.5224	0.1779	0.9542	0.021
Mof_C 	C 	0.429	0.1331	0.8422	-0.081
Mof_H 	H 	0.4385	0.0539	0.8491	0.07
Mof_C 	C 	0.7025	0.6272	0.2713	0.089
Mof_H 	H 	0.7507	0.6339	0.289	-0.002
Mof_C 	C 	0.5889	0.5946	0.1974	-0.036
Mof_H 	H 	0.5446	0.5662	0.1508	0.036
Mof_C 	C 	0.6008	0.6636	0.2745	0.026
Mof_H 	H 	0.5665	0.6957	0.2915	0.028
Mof_C 	C 	0.7005	0.7659	0.4146	-0.135
Mof_H 	H 	0.7515	0.7533	0.4515	0.074
Mof_H 	H 	0.6805	0.7533	0.4636	0.073
Mof_C 	C 	0.6862	0.8883	0.3745	0.027
Mof_C 	C 	0.7269	0.9395	0.3308	-0.063
Mof_H 	H 	0.7646	0.899	0.3287	0.042
Mof_C 	C 	0.7113	0.0513	0.2904	-0.1
Mof_H 	H 	0.7386	0.0855	0.2612	0.054
Mof_C 	C 	0.655	0.1118	0.2936	0.025
Mof_C 	C 	0.6142	0.0606	0.3373	-0.021
Mof_H 	H 	0.5765	0.1011	0.3394	0.035
Mof_C 	C 	0.6298	0.9488	0.3777	-0.067
Mof_H 	H 	0.6025	0.9146	0.4069	0.049
Mof_C 	C 	0.6346	0.238	0.2587	-0.101
Mof_H 	H 	0.5832	0.2462	0.2278	0.06
Mof_H 	H 	0.6501	0.2579	0.2058	0.062
Mof_C 	C 	0.744	0.3503	0.3979	-0.044
Mof_H 	H 	0.7798	0.3278	0.3799	0.055
Mof_C 	C 	0.7507	0.4219	0.477	0.036
Mof_H 	H 	0.7926	0.4582	0.5227	0.017
Mof_C 	C 	0.6425	0.3687	0.3971	0.098
Mof_H 	H 	0.5944	0.3662	0.3807	-0.003
Mof_Co	Co	0.67055	0.47435	0.08687	1.148
Mof_N 	N 	0.3988	0.4827	0.8278	-0.306
Mof_H 	H 	0.4343	0.5256	0.8283	0.169
Mof_H 	H 	0.3584	0.4893	0.8337	0.145
Mof_N 	N 	0.6575	0.5679	0.1946	-0.252
Mof_N 	N 	0.6679	0.6803	0.3239	-0.114
Mof_N 	N 	0.6659	0.3136	0.344	-0.112
Mof_N 	N 	0.6884	0.4326	0.4797	-0.253
Mof_O 	O 	0.317	0.991	0.7148	-0.306
Mof_O 	O 	0.2465	0.1391	0.6545	-0.442
Mof_O 	O 	0.5909	0.3583	0.0182	-0.459
Mof_O 	O 	0.5291	0.5107	0.9507	-0.344
Mof_C 	C 	0.6842	0.8883	0.3723	0.026
Mof_C 	C 	0.6892	0.9298	0.2839	-0.012
Mof_C 	C 	0.6718	0.0445	0.2529	0.024
Mof_C 	C 	0.6496	0.1177	0.3103	0.01
Mof_C 	C 	0.6446	0.0762	0.3987	-0.046
Mof_C 	C 	0.6619	0.9615	0.4297	-0.017
Mof_H 	H 	0.7041	0.8808	0.2455	0.032
Mof_H 	H 	0.6752	0.0722	0.1938	0.018
Mof_H 	H 	0.6297	0.1252	0.4371	0.042
Mof_H 	H 	0.6586	0.9338	0.4888	0.028
Mof_C 	C 	0.8063	0.5991	0.7135	0.316
Mof_C 	C 	0.8623	0.6715	0.7696	-0.034
Mof_C 	C 	0.8543	0.7939	0.7542	-0.13
Mof_H 	H 	0.8115	0.8233	0.7035	0.084
Mof_C 	C 	0.9098	0.8718	0.8141	0.171
Mof_C 	C 	0.9731	0.8241	0.8924	-0.175
Mof_C 	C 	0.0319	0.9044	0.9616	0.391
Mof_C 	C 	0.9802	0.7079	0.9028	0.076
Mof_H 	H 	0.0224	0.6779	0.9542	0.014
Mof_C 	C 	0.929	0.6331	0.8422	-0.089
Mof_H 	H 	0.9385	0.5539	0.8491	0.075
Mof_C 	C 	0.2025	0.1272	0.2713	0.089
Mof_H 	H 	0.2507	0.1339	0.289	-0.002
Mof_C 	C 	0.0889	0.0946	0.1974	-0.036
Mof_H 	H 	0.0446	0.0662	0.1508	0.036
Mof_C 	C 	0.1008	0.1636	0.2745	0.026
Mof_H 	H 	0.0665	0.1957	0.2915	0.027
Mof_C 	C 	0.2005	0.2659	0.4146	-0.134
Mof_H 	H 	0.2515	0.2533	0.4515	0.074
Mof_H 	H 	0.1805	0.2533	0.4636	0.073
Mof_C 	C 	0.1862	0.3883	0.3745	0.027
Mof_C 	C 	0.2269	0.4395	0.3308	-0.063
Mof_H 	H 	0.2646	0.399	0.3287	0.042
Mof_C 	C 	0.2113	0.5513	0.2904	-0.101
Mof_H 	H 	0.2386	0.5855	0.2612	0.055
Mof_C 	C 	0.155	0.6118	0.2936	0.025
Mof_C 	C 	0.1142	0.5606	0.3373	-0.023
Mof_H 	H 	0.0765	0.6011	0.3394	0.035
Mof_C 	C 	0.1298	0.4488	0.3777	-0.068
Mof_H 	H 	0.1025	0.4146	0.4069	0.049
Mof_C 	C 	0.1346	0.738	0.2587	-0.1
Mof_H 	H 	0.0832	0.7462	0.2278	0.06
Mof_H 	H 	0.1501	0.7579	0.2058	0.062
Mof_C 	C 	0.244	0.8503	0.3979	-0.045
Mof_H 	H 	0.2798	0.8278	0.3799	0.055
Mof_C 	C 	0.2507	0.9219	0.477	0.036
Mof_H 	H 	0.2926	0.9582	0.5227	0.017
Mof_C 	C 	0.1425	0.8687	0.3971	0.098
Mof_H 	H 	0.0944	0.8662	0.3807	-0.003
Mof_Co	Co	0.17055	0.97435	0.08687	1.148
Mof_N 	N 	0.8988	0.9827	0.8278	-0.306
Mof_H 	H 	0.9343	0.0256	0.8283	0.17
Mof_H 	H 	0.8584	0.9893	0.8337	0.146
Mof_N 	N 	0.1575	0.0679	0.1946	-0.252
Mof_N 	N 	0.1679	0.1803	0.3239	-0.115
Mof_N 	N 	0.1659	0.8136	0.344	-0.112
Mof_N 	N 	0.1884	0.9326	0.4797	-0.253
Mof_O 	O 	0.817	0.491	0.7148	-0.307
Mof_O 	O 	0.7465	0.6391	0.6545	-0.442
Mof_O 	O 	0.0909	0.8583	0.0182	-0.461
Mof_O 	O 	0.0291	0.0107	0.9507	-0.349
Mof_C 	C 	0.1842	0.3883	0.3723	0.026
Mof_C 	C 	0.1892	0.4298	0.2839	-0.011
Mof_C 	C 	0.1718	0.5445	0.2529	0.024
Mof_C 	C 	0.1496	0.6177	0.3103	0.01
Mof_C 	C 	0.1446	0.5762	0.3987	-0.045
Mof_C 	C 	0.1619	0.4615	0.4297	-0.015
Mof_H 	H 	0.2041	0.3808	0.2455	0.032
Mof_H 	H 	0.1752	0.5722	0.1938	0.017
Mof_H 	H 	0.1297	0.6252	0.4371	0.041
Mof_H 	H 	0.1586	0.4338	0.4888	0.027
_end
