# CIF file generated by openbabel 2.4.1, see http://openbabel.sf.net
data_I
_chemical_name_common 'image0'
_cell_length_a 27.41
_cell_length_b 27.41
_cell_length_c 6.7279
_cell_angle_alpha 90
_cell_angle_beta 90
_cell_angle_gamma 120
_space_group_name_H-M_alt 'P 1'
_space_group_name_Hall 'P 1'
loop_
    _symmetry_equiv_pos_as_xyz
    x,y,z
loop_
    _atom_site_label
    _atom_site_type_symbol
    _atom_site_fract_x
    _atom_site_fract_y
    _atom_site_fract_z
    _atom_site_occupancy
    Cd1     Cd   0.30384   0.03606   0.67980   1.000
    P1      P    0.42730   0.03880   0.53000   1.000
    O1      O    0.48150   0.08640   0.46200   1.000
    O2      O    0.39620   0.05540   0.67800   1.000
    O3      O    0.39010   0.00740   0.35500   1.000
    N1      N    0.45900   0.00200   0.87000   1.000
    C1      C    0.44060   0.98590   0.65600   1.000
    C2      C    0.45100   0.94620   0.94800   1.000
    C3      C    0.52230   0.04280   0.84500   1.000
    Cd2     Cd   0.97051   0.36939   0.01313   1.000
    P2      P    0.09397   0.37213   0.86333   1.000
    O4      O    0.14817   0.41973   0.79533   1.000
    O5      O    0.06287   0.38873   0.01133   1.000
    O6      O    0.05677   0.34073   0.68833   1.000
    N2      N    0.12567   0.33533   0.20333   1.000
    C4      C    0.10727   0.31923   0.98933   1.000
    C5      C    0.11767   0.27953   0.28133   1.000
    C6      C    0.18897   0.37613   0.17833   1.000
    Cd3     Cd   0.63717   0.70273   0.34647   1.000
    P3      P    0.76063   0.70547   0.19667   1.000
    O7      O    0.81483   0.75307   0.12867   1.000
    O8      O    0.72953   0.72207   0.34467   1.000
    O9      O    0.72343   0.67407   0.02167   1.000
    N3      N    0.79233   0.66867   0.53667   1.000
    C7      C    0.77393   0.65257   0.32267   1.000
    C8      C    0.78433   0.61287   0.61467   1.000
    C9      C    0.85563   0.70947   0.51167   1.000
    Cd4     Cd   0.96394   0.26778   0.67980   1.000
    P4      P    0.96120   0.38850   0.53000   1.000
    O10     O    0.91360   0.39510   0.46200   1.000
    O11     O    0.94460   0.34080   0.67800   1.000
    O12     O    0.99260   0.38270   0.35500   1.000
    N4      N    0.99800   0.45700   0.87000   1.000
    C10     C    0.01410   0.45470   0.65600   1.000
    C11     C    0.05380   0.50480   0.94800   1.000
    C12     C    0.95720   0.47950   0.84500   1.000
    Cd5     Cd   0.63061   0.60111   0.01313   1.000
    P5      P    0.62787   0.72183   0.86333   1.000
    O13     O    0.58027   0.72843   0.79533   1.000
    O14     O    0.61127   0.67413   0.01133   1.000
    O15     O    0.65927   0.71603   0.68833   1.000
    N5      N    0.66467   0.79033   0.20333   1.000
    C13     C    0.68077   0.78803   0.98933   1.000
    C14     C    0.72047   0.83813   0.28133   1.000
    C15     C    0.62387   0.81283   0.17833   1.000
    Cd6     Cd   0.29727   0.93445   0.34647   1.000
    P6      P    0.29453   0.05517   0.19667   1.000
    O16     O    0.24693   0.06177   0.12867   1.000
    O17     O    0.27793   0.00747   0.34467   1.000
    O18     O    0.32593   0.04937   0.02167   1.000
    N6      N    0.33133   0.12367   0.53667   1.000
    C16     C    0.34743   0.12137   0.32267   1.000
    C17     C    0.38713   0.17147   0.61467   1.000
    C18     C    0.29053   0.14617   0.51167   1.000
    Cd7     Cd   0.73222   0.69616   0.67980   1.000
    P7      P    0.61150   0.57270   0.53000   1.000
    O19     O    0.60490   0.51850   0.46200   1.000
    O20     O    0.65920   0.60380   0.67800   1.000
    O21     O    0.61730   0.60990   0.35500   1.000
    N7      N    0.54300   0.54100   0.87000   1.000
    C19     C    0.54530   0.55940   0.65600   1.000
    C20     C    0.49520   0.54900   0.94800   1.000
    C21     C    0.52050   0.47770   0.84500   1.000
    Cd8     Cd   0.39889   0.02949   0.01313   1.000
    P8      P    0.27817   0.90603   0.86333   1.000
    O22     O    0.27157   0.85183   0.79533   1.000
    O23     O    0.32587   0.93713   0.01133   1.000
    O24     O    0.28397   0.94323   0.68833   1.000
    N8      N    0.20967   0.87433   0.20333   1.000
    C22     C    0.21197   0.89273   0.98933   1.000
    C23     C    0.16187   0.88233   0.28133   1.000
    C24     C    0.18717   0.81103   0.17833   1.000
    Cd9     Cd   0.06555   0.36283   0.34647   1.000
    P9      P    0.94483   0.23937   0.19667   1.000
    O25     O    0.93823   0.18517   0.12867   1.000
    O26     O    0.99253   0.27047   0.34467   1.000
    O27     O    0.95063   0.27657   0.02167   1.000
    N9      N    0.87633   0.20767   0.53667   1.000
    C25     C    0.87863   0.22607   0.32267   1.000
    C26     C    0.82853   0.21567   0.61467   1.000
    C27     C    0.85383   0.14437   0.51167   1.000
    Cd10    Cd   0.69616   0.96394   0.32020   1.000
    P10     P    0.57270   0.96120   0.47000   1.000
    O28     O    0.51850   0.91360   0.53800   1.000
    O29     O    0.60380   0.94460   0.32200   1.000
    O30     O    0.60990   0.99260   0.64500   1.000
    N10     N    0.54100   0.99800   0.13000   1.000
    C28     C    0.55940   0.01410   0.34400   1.000
    C29     C    0.54900   0.05380   0.05200   1.000
    C30     C    0.47770   0.95720   0.15500   1.000
    Cd11    Cd   0.36283   0.29727   0.65353   1.000
    P11     P    0.23937   0.29453   0.80333   1.000
    O31     O    0.18517   0.24693   0.87133   1.000
    O32     O    0.27047   0.27793   0.65533   1.000
    O33     O    0.27657   0.32593   0.97833   1.000
    N11     N    0.20767   0.33133   0.46333   1.000
    C31     C    0.22607   0.34743   0.67733   1.000
    C32     C    0.21567   0.38713   0.38533   1.000
    C33     C    0.14437   0.29053   0.48833   1.000
    Cd12    Cd   0.02949   0.63061   0.98687   1.000
    P12     P    0.90603   0.62787   0.13667   1.000
    O34     O    0.85183   0.58027   0.20467   1.000
    O35     O    0.93713   0.61127   0.98867   1.000
    O36     O    0.94323   0.65927   0.31167   1.000
    N12     N    0.87433   0.66467   0.79667   1.000
    C34     C    0.89273   0.68077   0.01067   1.000
    C35     C    0.88233   0.72047   0.71867   1.000
    C36     C    0.81103   0.62387   0.82167   1.000
    Cd13    Cd   0.03606   0.73222   0.32020   1.000
    P13     P    0.03880   0.61150   0.47000   1.000
    O37     O    0.08640   0.60490   0.53800   1.000
    O38     O    0.05540   0.65920   0.32200   1.000
    O39     O    0.00740   0.61730   0.64500   1.000
    N13     N    0.00200   0.54300   0.13000   1.000
    C37     C    0.98590   0.54530   0.34400   1.000
    C38     C    0.94620   0.49520   0.05200   1.000
    C39     C    0.04280   0.52050   0.15500   1.000
    Cd14    Cd   0.70273   0.06555   0.65353   1.000
    P14     P    0.70547   0.94483   0.80333   1.000
    O40     O    0.75307   0.93823   0.87133   1.000
    O41     O    0.72207   0.99253   0.65533   1.000
    O42     O    0.67407   0.95063   0.97833   1.000
    N14     N    0.66867   0.87633   0.46333   1.000
    C40     C    0.65257   0.87863   0.67733   1.000
    C41     C    0.61287   0.82853   0.38533   1.000
    C42     C    0.70947   0.85383   0.48833   1.000
    Cd15    Cd   0.36939   0.39889   0.98687   1.000
    P15     P    0.37213   0.27817   0.13667   1.000
    O43     O    0.41973   0.27157   0.20467   1.000
    O44     O    0.38873   0.32587   0.98867   1.000
    O45     O    0.34073   0.28397   0.31167   1.000
    N15     N    0.33533   0.20967   0.79667   1.000
    C43     C    0.31923   0.21197   0.01067   1.000
    C44     C    0.27953   0.16187   0.71867   1.000
    C45     C    0.37613   0.18717   0.82167   1.000
    Cd16    Cd   0.26778   0.30384   0.32020   1.000
    P16     P    0.38850   0.42730   0.47000   1.000
    O46     O    0.39510   0.48150   0.53800   1.000
    O47     O    0.34080   0.39620   0.32200   1.000
    O48     O    0.38270   0.39010   0.64500   1.000
    N16     N    0.45700   0.45900   0.13000   1.000
    C46     C    0.45470   0.44060   0.34400   1.000
    C47     C    0.50480   0.45100   0.05200   1.000
    C48     C    0.47950   0.52230   0.15500   1.000
    Cd17    Cd   0.93445   0.63717   0.65353   1.000
    P17     P    0.05517   0.76063   0.80333   1.000
    O49     O    0.06177   0.81483   0.87133   1.000
    O50     O    0.00747   0.72953   0.65533   1.000
    O51     O    0.04937   0.72343   0.97833   1.000
    N17     N    0.12367   0.79233   0.46333   1.000
    C49     C    0.12137   0.77393   0.67733   1.000
    C50     C    0.17147   0.78433   0.38533   1.000
    C51     C    0.14617   0.85563   0.48833   1.000
    Cd18    Cd   0.60111   0.97051   0.98687   1.000
    P18     P    0.72183   0.09397   0.13667   1.000
    O52     O    0.72843   0.14817   0.20467   1.000
    O53     O    0.67413   0.06287   0.98867   1.000
    O54     O    0.71603   0.05677   0.31167   1.000
    N18     N    0.79033   0.12567   0.79667   1.000
    C52     C    0.78803   0.10727   0.01067   1.000
    C53     C    0.83813   0.11767   0.71867   1.000
    C54     C    0.81283   0.18897   0.82167   1.000
