# CIF file generated by openbabel 2.4.1, see http://openbabel.sf.net
data_I
_chemical_name_common 'YAZFOW_clean'
_cell_length_a 12.3202
_cell_length_b 12.6137
_cell_length_c 12.6137
_cell_angle_alpha 76.202
_cell_angle_beta 60.7669
_cell_angle_gamma 60.7669
_space_group_name_H-M_alt 'P 1'
_space_group_name_Hall 'P 1'
loop_
    _symmetry_equiv_pos_as_xyz
    x,y,z
loop_
    _atom_site_label
    _atom_site_type_symbol
    _atom_site_fract_x
    _atom_site_fract_y
    _atom_site_fract_z
    _atom_site_occupancy
    In1     In   0.31204   0.37593   0.00000   1.000
    In2     In   0.68796   0.62407   0.00000   1.000
    In3     In   0.56203   0.50000   0.87594   1.000
    In4     In   0.93797   0.50000   0.12406   1.000
    H1      H    0.27110   0.44620   0.67420   1.000
    H2      H    0.39150   0.55380   0.32580   1.000
    H3      H    0.19530   0.82580   0.94620   1.000
    H4      H    0.96730   0.17420   0.05380   1.000
    H5      H    0.85850   0.17420   0.94620   1.000
    H6      H    0.97890   0.82580   0.05380   1.000
    H7      H    0.28270   0.44620   0.32580   1.000
    H8      H    0.05470   0.55380   0.67420   1.000
    H9      H    0.12500   0.55740   0.94260   1.000
    H10     H    0.62500   0.44260   0.05740   1.000
    H11     H    0.31760   0.55740   0.05740   1.000
    H12     H    0.93240   0.44260   0.94260   1.000
    H13     H    0.61410   0.50000   0.50000   1.000
    H14     H    0.36410   0.00000   0.00000   1.000
    H15     H    0.63590   0.00000   0.00000   1.000
    H16     H    0.88590   0.50000   0.50000   1.000
    C1      C    0.33222   0.46886   0.60450   1.000
    C2      C    0.44293   0.47107   0.60607   1.000
    C3      C    0.45724   0.44683   0.72121   1.000
    C4      C    0.40558   0.53114   0.39550   1.000
    C5      C    0.52007   0.52893   0.39393   1.000
    C6      C    0.62528   0.55317   0.27879   1.000
    C7      C    0.18672   0.89550   0.96886   1.000
    C8      C    0.29900   0.89393   0.97107   1.000
    C9      C    0.42845   0.77879   0.94683   1.000
    C10     C    0.05108   0.10450   0.03114   1.000
    C11     C    0.16400   0.10607   0.02893   1.000
    C12     C    0.15407   0.22121   0.05317   1.000
    C13     C    0.84442   0.10450   0.96886   1.000
    C14     C    0.72993   0.10607   0.97107   1.000
    C15     C    0.62472   0.22121   0.94683   1.000
    C16     C    0.91778   0.89550   0.03114   1.000
    C17     C    0.80707   0.89393   0.02893   1.000
    C18     C    0.79276   0.77879   0.05317   1.000
    C19     C    0.19892   0.46886   0.39550   1.000
    C20     C    0.08600   0.47107   0.39393   1.000
    C21     C    0.09593   0.44683   0.27879   1.000
    C22     C    0.06328   0.53114   0.60450   1.000
    C23     C    0.95100   0.52893   0.60607   1.000
    C24     C    0.82155   0.55317   0.72121   1.000
    C25     C    0.31130   0.50000   0.50000   1.000
    C26     C    0.53860   0.50000   0.50000   1.000
    C27     C    0.06130   0.00000   0.00000   1.000
    C28     C    0.28860   0.00000   0.00000   1.000
    C29     C    0.93870   0.00000   0.00000   1.000
    C30     C    0.71140   0.00000   0.00000   1.000
    C31     C    0.18870   0.50000   0.50000   1.000
    C32     C    0.96140   0.50000   0.50000   1.000
    O1      O    0.40271   0.38379   0.80085   1.000
    O2      O    0.52479   0.49397   0.72813   1.000
    O3      O    0.58735   0.61621   0.19915   1.000
    O4      O    0.74689   0.50603   0.27187   1.000
    O5      O    0.45356   0.69915   0.88379   1.000
    O6      O    0.50292   0.77187   0.99397   1.000
    O7      O    0.03650   0.30085   0.11621   1.000
    O8      O    0.26876   0.22813   0.00603   1.000
    O9      O    0.66265   0.30085   0.88379   1.000
    O10     O    0.50311   0.22813   0.99397   1.000
    O11     O    0.84729   0.69915   0.11621   1.000
    O12     O    0.72521   0.77187   0.00603   1.000
    O13     O    0.21350   0.38379   0.19915   1.000
    O14     O    0.98124   0.49397   0.27187   1.000
    O15     O    0.79644   0.61621   0.80085   1.000
    O16     O    0.74708   0.50603   0.72813   1.000
    O17     O    0.12500   0.50100   0.99900   1.000
    O18     O    0.62500   0.49900   0.00100   1.000
    O19     O    0.37400   0.50100   0.00100   1.000
    O20     O    0.87600   0.49900   0.99900   1.000
