data_functionalizedCrystal
_audit_creation_method	'EQeq! by Chris Wilmer'
_symmetry_space_group_name_H-M	'P1'
_symmetry_Int_Tables_number	1
_symmetry_cell_setting	triclinic
loop_
_symmetry_equiv_pos_as_xyz
  x,y,z
_cell_length_a	47.4
_cell_length_b	9.611
_cell_length_c	17.8051
_cell_angle_alpha	90
_cell_angle_beta	92.21
_cell_angle_gamma	90
loop_
_atom_site_label
_atom_site_type_symbol
_atom_site_fract_x
_atom_site_fract_y
_atom_site_fract_z
_atom_site_charge
Mof_Co	Co	0.67717	0.67715	0.49146	1.155
Mof_N 	N 	0.63574	0.6794	0.5258	-0.286
Mof_N 	N 	0.56086	0.6619	0.6443	-0.206
Mof_O 	O 	0.71883	0.5966	0.4734	-0.501
Mof_O 	O 	0.68905	0.4727	0.5364	-0.38
Mof_O 	O 	0.68634	0.7856	0.5872	-0.439
Mof_O 	O 	0.73356	0.7882	0.6029	-0.428
Mof_O 	O 	0.67854	0.1621	0.9184	-0.434
Mof_O 	O 	0.72392	0.1082	0.9452	-0.418
Mof_O 	O 	0.5873	0.726	0.7464	-0.104
Mof_O 	O 	0.5348	0.607	0.5379	-0.117
Mof_C 	C 	0.71248	0.4836	0.506	0.316
Mof_C 	C 	0.73211	0.3636	0.5024	-0.069
Mof_C 	C 	0.72847	0.252	0.5502	-0.018
Mof_H 	H 	0.714	0.2528	0.5841	0.055
Mof_C 	C 	0.75332	0.3619	0.453	-0.015
Mof_H 	H 	0.7557	0.4372	0.421	0.051
Mof_C 	C 	0.70188	0.1065	0.9061	0.377
Mof_C 	C 	0.70912	0.8133	0.6215	0.387
Mof_C 	C 	0.70751	0.8881	0.696	-0.083
Mof_C 	C 	0.68235	0.9475	0.7157	-0.009
Mof_H 	H 	0.6665	0.9401	0.6834	0.053
Mof_C 	C 	0.68035	0.0202	0.7852	-0.022
Mof_H 	H 	0.6635	0.0625	0.7977	0.06
Mof_C 	C 	0.70315	0.0265	0.8325	-0.062
Mof_C 	C 	0.72814	0.9702	0.8113	-0.027
Mof_H 	H 	0.7442	0.9785	0.8428	0.058
Mof_C 	C 	0.72976	0.9006	0.7432	-0.004
Mof_H 	H 	0.7469	0.8617	0.7303	0.049
Mof_C 	C 	0.62174	0.5638	0.5339	0.17
Mof_H 	H 	0.6289	0.4822	0.5141	-0.038
Mof_C 	C 	0.5959	0.5575	0.5719	-0.288
Mof_H 	H 	0.5861	0.474	0.5752	0.15
Mof_C 	C 	0.586	0.6714	0.6024	0.314
Mof_C 	C 	0.5998	0.7894	0.5928	-0.317
Mof_H 	H 	0.5927	0.8723	0.6111	0.161
Mof_C 	C 	0.62433	0.7896	0.5564	0.207
Mof_H 	H 	0.6338	0.8738	0.5528	-0.038
Mof_C 	C 	0.5643	0.702	0.72	0.014
Mof_C 	C 	0.5392	0.695	0.763	0.03
Mof_C 	C 	0.5125	0.6575	0.7302	0.019
Mof_C 	C 	0.5101	0.616	0.646	-0.062
Mof_C 	C 	0.5361	0.618	0.604	0.033
Mof_C 	C 	0.5405	0.711	0.8383	-0.015
Mof_H 	H 	0.5581	0.7238	0.862	0.053
Mof_C 	C 	0.4844	0.597	0.6147	0.023
Mof_H 	H 	0.4823	0.5854	0.5629	0.044
Mof_O 	O 	0.5872	0.611	0.7513	-0.165
Mof_O 	O 	0.5357	0.721	0.542	-0.158
Mof_C 	C 	0.5636	0.621	0.723	0.201
Mof_C 	C 	0.538	0.617	0.767	-0.072
Mof_C 	C 	0.509	0.69	0.652	0.032
Mof_C 	C 	0.5366	0.693	0.609	0.191
Mof_C 	C 	0.5397	0.593	0.842	-0.021
Mof_H 	H 	0.5572	0.5738	0.8655	0.057
Mof_C 	C 	0.4826	0.711	0.619	-0.077
Mof_H 	H 	0.4805	0.7249	0.567	0.067
Mof_Co	Co	0.17717	0.17715	0.49146	1.156
Mof_N 	N 	0.13574	0.1794	0.5258	-0.285
Mof_N 	N 	0.06086	0.1619	0.6443	-0.205
Mof_O 	O 	0.21883	0.0966	0.4734	-0.5
Mof_O 	O 	0.18905	0.9727	0.5364	-0.381
Mof_O 	O 	0.18634	0.2856	0.5872	-0.439
Mof_O 	O 	0.23356	0.2882	0.6029	-0.428
Mof_O 	O 	0.17854	0.6621	0.9184	-0.434
Mof_O 	O 	0.22392	0.6082	0.9452	-0.419
Mof_O 	O 	0.0873	0.226	0.7464	-0.104
Mof_O 	O 	0.0348	0.107	0.5379	-0.117
Mof_C 	C 	0.21248	0.9836	0.506	0.315
Mof_C 	C 	0.23211	0.8636	0.5024	-0.069
Mof_C 	C 	0.22847	0.752	0.5502	-0.018
Mof_H 	H 	0.214	0.7528	0.5841	0.055
Mof_C 	C 	0.25332	0.8619	0.453	-0.016
Mof_H 	H 	0.2557	0.9372	0.421	0.051
Mof_C 	C 	0.20188	0.6065	0.9061	0.377
Mof_C 	C 	0.20912	0.3133	0.6215	0.387
Mof_C 	C 	0.20751	0.3881	0.696	-0.083
Mof_C 	C 	0.18235	0.4475	0.7157	-0.008
Mof_H 	H 	0.1665	0.4401	0.6834	0.053
Mof_C 	C 	0.18035	0.5202	0.7852	-0.023
Mof_H 	H 	0.1635	0.5625	0.7977	0.06
Mof_C 	C 	0.20315	0.5265	0.8325	-0.063
Mof_C 	C 	0.22814	0.4702	0.8113	-0.024
Mof_H 	H 	0.2442	0.4785	0.8428	0.058
Mof_C 	C 	0.22976	0.4006	0.7432	-0.005
Mof_H 	H 	0.2469	0.3617	0.7303	0.05
Mof_C 	C 	0.12174	0.0638	0.5339	0.17
Mof_H 	H 	0.1289	0.9822	0.5141	-0.038
Mof_C 	C 	0.0959	0.0575	0.5719	-0.287
Mof_H 	H 	0.0861	0.974	0.5752	0.15
Mof_C 	C 	0.086	0.1714	0.6024	0.314
Mof_C 	C 	0.0998	0.2894	0.5928	-0.317
Mof_H 	H 	0.0927	0.3723	0.6111	0.161
Mof_C 	C 	0.12433	0.2896	0.5564	0.207
Mof_H 	H 	0.1338	0.3738	0.5528	-0.038
Mof_C 	C 	0.0643	0.202	0.72	0.014
Mof_C 	C 	0.0392	0.195	0.763	0.03
Mof_C 	C 	0.0125	0.1575	0.7302	0.019
Mof_C 	C 	0.0101	0.116	0.646	-0.062
Mof_C 	C 	0.0361	0.118	0.604	0.033
Mof_C 	C 	0.0405	0.211	0.8383	-0.015
Mof_H 	H 	0.0581	0.2238	0.862	0.053
Mof_C 	C 	0.9844	0.097	0.6147	0.022
Mof_H 	H 	0.9823	0.0854	0.5629	0.044
Mof_O 	O 	0.0872	0.111	0.7513	-0.164
Mof_O 	O 	0.0357	0.221	0.542	-0.158
Mof_C 	C 	0.0636	0.121	0.723	0.2
Mof_C 	C 	0.038	0.117	0.767	-0.072
Mof_C 	C 	0.009	0.19	0.652	0.032
Mof_C 	C 	0.0366	0.193	0.609	0.191
Mof_C 	C 	0.0397	0.093	0.842	-0.021
Mof_H 	H 	0.0572	0.0738	0.8655	0.057
Mof_C 	C 	0.9826	0.211	0.619	-0.076
Mof_H 	H 	0.9805	0.2249	0.567	0.067
Mof_Co	Co	0.32283	0.67715	0.00854	1.14
Mof_N 	N 	0.36426	0.6794	0.9742	-0.277
Mof_N 	N 	0.43914	0.6619	0.8557	-0.204
Mof_O 	O 	0.28117	0.5966	0.0266	-0.524
Mof_O 	O 	0.31095	0.4727	0.9636	-0.373
Mof_O 	O 	0.31366	0.7856	0.9128	-0.428
Mof_O 	O 	0.26644	0.7882	0.8971	-0.417
Mof_O 	O 	0.32146	0.1621	0.5816	-0.445
Mof_O 	O 	0.27608	0.1082	0.5548	-0.433
Mof_O 	O 	0.4127	0.726	0.7536	-0.107
Mof_O 	O 	0.4652	0.607	0.9621	-0.108
Mof_C 	C 	0.28752	0.4836	0.994	0.322
Mof_C 	C 	0.26789	0.3636	0.9976	0.022
Mof_C 	C 	0.27153	0.252	0.9498	-0.1
Mof_H 	H 	0.286	0.2528	0.9159	0.085
Mof_C 	C 	0.24668	0.3619	0.047	-0.13
Mof_H 	H 	0.2443	0.4372	0.079	0.085
Mof_C 	C 	0.29812	0.1065	0.5939	0.38
Mof_C 	C 	0.29088	0.8133	0.8785	0.384
Mof_C 	C 	0.29249	0.8881	0.804	-0.079
Mof_C 	C 	0.31765	0.9475	0.7843	-0.015
Mof_H 	H 	0.3335	0.9401	0.8166	0.055
Mof_C 	C 	0.31965	0.0202	0.7148	-0.017
Mof_H 	H 	0.3365	0.0625	0.7023	0.055
Mof_C 	C 	0.29685	0.0265	0.6675	-0.07
Mof_C 	C 	0.27186	0.9702	0.6887	-0.022
Mof_H 	H 	0.2558	0.9785	0.6572	0.056
Mof_C 	C 	0.27024	0.9006	0.7568	-0.009
Mof_H 	H 	0.2531	0.8617	0.7697	0.051
Mof_C 	C 	0.37826	0.5638	0.9661	0.172
Mof_H 	H 	0.3711	0.4822	0.9859	-0.031
Mof_C 	C 	0.4041	0.5575	0.9281	-0.285
Mof_H 	H 	0.4139	0.474	0.9248	0.154
Mof_C 	C 	0.414	0.6714	0.8976	0.315
Mof_C 	C 	0.4002	0.7894	0.9072	-0.315
Mof_H 	H 	0.4073	0.8723	0.8889	0.162
Mof_C 	C 	0.37567	0.7896	0.9436	0.209
Mof_H 	H 	0.3662	0.8738	0.9472	-0.033
Mof_C 	C 	0.4357	0.702	0.78	0.015
Mof_C 	C 	0.4608	0.695	0.737	0.03
Mof_C 	C 	0.4875	0.6575	0.7698	0.018
Mof_C 	C 	0.4899	0.616	0.854	-0.06
Mof_C 	C 	0.4639	0.618	0.896	0.033
Mof_C 	C 	0.4595	0.711	0.6617	-0.017
Mof_H 	H 	0.4419	0.7238	0.638	0.049
Mof_C 	C 	0.5156	0.597	0.8853	0.023
Mof_H 	H 	0.5177	0.5854	0.9371	0.052
Mof_O 	O 	0.4128	0.611	0.7487	-0.167
Mof_O 	O 	0.4643	0.721	0.958	-0.152
Mof_C 	C 	0.4364	0.621	0.777	0.2
Mof_C 	C 	0.462	0.617	0.733	-0.072
Mof_C 	C 	0.491	0.69	0.848	0.034
Mof_C 	C 	0.4634	0.693	0.891	0.189
Mof_C 	C 	0.4603	0.593	0.658	-0.021
Mof_H 	H 	0.4428	0.5738	0.6345	0.051
Mof_C 	C 	0.5174	0.711	0.881	-0.079
Mof_H 	H 	0.5195	0.7249	0.933	0.074
Mof_Co	Co	0.82283	0.17715	0.00854	1.14
Mof_N 	N 	0.86426	0.1794	0.9742	-0.277
Mof_N 	N 	0.93914	0.1619	0.8557	-0.204
Mof_O 	O 	0.78117	0.0966	0.0266	-0.524
Mof_O 	O 	0.81095	0.9727	0.9636	-0.373
Mof_O 	O 	0.81366	0.2856	0.9128	-0.427
Mof_O 	O 	0.76644	0.2882	0.8971	-0.417
Mof_O 	O 	0.82146	0.6621	0.5816	-0.446
Mof_O 	O 	0.77608	0.6082	0.5548	-0.434
Mof_O 	O 	0.9127	0.226	0.7536	-0.107
Mof_O 	O 	0.9652	0.107	0.9621	-0.108
Mof_C 	C 	0.78752	0.9836	0.994	0.322
Mof_C 	C 	0.76789	0.8636	0.9976	0.02
Mof_C 	C 	0.77153	0.752	0.9498	-0.098
Mof_H 	H 	0.786	0.7528	0.9159	0.084
Mof_C 	C 	0.74668	0.8619	0.047	-0.128
Mof_H 	H 	0.7443	0.9372	0.079	0.085
Mof_C 	C 	0.79812	0.6065	0.5939	0.38
Mof_C 	C 	0.79088	0.3133	0.8785	0.384
Mof_C 	C 	0.79249	0.3881	0.804	-0.079
Mof_C 	C 	0.81765	0.4475	0.7843	-0.013
Mof_H 	H 	0.8335	0.4401	0.8166	0.055
Mof_C 	C 	0.81965	0.5202	0.7148	-0.018
Mof_H 	H 	0.8365	0.5625	0.7023	0.055
Mof_C 	C 	0.79685	0.5265	0.6675	-0.071
Mof_C 	C 	0.77186	0.4702	0.6887	-0.02
Mof_H 	H 	0.7558	0.4785	0.6572	0.056
Mof_C 	C 	0.77024	0.4006	0.7568	-0.009
Mof_H 	H 	0.7531	0.3617	0.7697	0.052
Mof_C 	C 	0.87826	0.0638	0.9661	0.173
Mof_H 	H 	0.8711	0.9822	0.9859	-0.032
Mof_C 	C 	0.9041	0.0575	0.9281	-0.284
Mof_H 	H 	0.9139	0.974	0.9248	0.152
Mof_C 	C 	0.914	0.1714	0.8976	0.315
Mof_C 	C 	0.9002	0.2894	0.9072	-0.315
Mof_H 	H 	0.9073	0.3723	0.8889	0.163
Mof_C 	C 	0.87567	0.2896	0.9436	0.209
Mof_H 	H 	0.8662	0.3738	0.9472	-0.033
Mof_C 	C 	0.9357	0.202	0.78	0.016
Mof_C 	C 	0.9608	0.195	0.737	0.03
Mof_C 	C 	0.9875	0.1575	0.7698	0.018
Mof_C 	C 	0.9899	0.116	0.854	-0.061
Mof_C 	C 	0.9639	0.118	0.896	0.032
Mof_C 	C 	0.9595	0.211	0.6617	-0.017
Mof_H 	H 	0.9419	0.2238	0.638	0.049
Mof_C 	C 	0.0156	0.097	0.8853	0.023
Mof_H 	H 	0.0177	0.0854	0.9371	0.052
Mof_O 	O 	0.9128	0.111	0.7487	-0.167
Mof_O 	O 	0.9643	0.221	0.958	-0.151
Mof_C 	C 	0.9364	0.121	0.777	0.199
Mof_C 	C 	0.962	0.117	0.733	-0.073
Mof_C 	C 	0.991	0.19	0.848	0.035
Mof_C 	C 	0.9634	0.193	0.891	0.189
Mof_C 	C 	0.9603	0.093	0.658	-0.021
Mof_H 	H 	0.9428	0.0738	0.6345	0.051
Mof_C 	C 	0.0174	0.211	0.881	-0.079
Mof_H 	H 	0.0195	0.2249	0.933	0.074
Mof_Co	Co	0.32283	0.32285	0.50854	1.156
Mof_N 	N 	0.36426	0.3206	0.4742	-0.284
Mof_N 	N 	0.43914	0.3381	0.3557	-0.205
Mof_O 	O 	0.28117	0.4034	0.5266	-0.501
Mof_O 	O 	0.31095	0.5273	0.4636	-0.381
Mof_O 	O 	0.31366	0.2144	0.4128	-0.439
Mof_O 	O 	0.26644	0.2118	0.3971	-0.428
Mof_O 	O 	0.32146	0.8379	0.0816	-0.456
Mof_O 	O 	0.27608	0.8918	0.0548	-0.444
Mof_O 	O 	0.4127	0.274	0.2536	-0.11
Mof_O 	O 	0.4652	0.393	0.4621	-0.117
Mof_C 	C 	0.28752	0.5164	0.494	0.316
Mof_C 	C 	0.26789	0.6364	0.4976	-0.07
Mof_C 	C 	0.27153	0.748	0.4498	-0.017
Mof_H 	H 	0.286	0.7472	0.4159	0.054
Mof_C 	C 	0.24668	0.6381	0.547	-0.014
Mof_H 	H 	0.2443	0.5628	0.579	0.051
Mof_C 	C 	0.29812	0.8935	0.0939	0.382
Mof_C 	C 	0.29088	0.1867	0.3785	0.385
Mof_C 	C 	0.29249	0.1119	0.304	-0.08
Mof_C 	C 	0.31765	0.0525	0.2843	-0.014
Mof_H 	H 	0.3335	0.0599	0.3166	0.054
Mof_C 	C 	0.31965	0.9798	0.2148	-0.018
Mof_H 	H 	0.3365	0.9375	0.2023	0.052
Mof_C 	C 	0.29685	0.9735	0.1675	-0.076
Mof_C 	C 	0.27186	0.0298	0.1887	-0.02
Mof_H 	H 	0.2558	0.0215	0.1572	0.054
Mof_C 	C 	0.27024	0.0994	0.2568	-0.011
Mof_H 	H 	0.2531	0.1383	0.2697	0.051
Mof_C 	C 	0.37826	0.4362	0.4661	0.169
Mof_H 	H 	0.3711	0.5178	0.4859	-0.038
Mof_C 	C 	0.4041	0.4425	0.4281	-0.287
Mof_H 	H 	0.4139	0.526	0.4248	0.149
Mof_C 	C 	0.414	0.3286	0.3976	0.313
Mof_C 	C 	0.4002	0.2106	0.4072	-0.316
Mof_H 	H 	0.4073	0.1277	0.3889	0.159
Mof_C 	C 	0.37567	0.2104	0.4436	0.206
Mof_H 	H 	0.3662	0.1262	0.4472	-0.038
Mof_C 	C 	0.4357	0.298	0.28	0.017
Mof_C 	C 	0.4608	0.305	0.237	0.03
Mof_C 	C 	0.4875	0.3425	0.2698	0.017
Mof_C 	C 	0.4899	0.384	0.354	-0.062
Mof_C 	C 	0.4639	0.382	0.396	0.032
Mof_C 	C 	0.4595	0.289	0.1617	-0.019
Mof_H 	H 	0.4419	0.2762	0.138	0.045
Mof_C 	C 	0.5156	0.403	0.3853	0.022
Mof_H 	H 	0.5177	0.4146	0.4371	0.044
Mof_O 	O 	0.4128	0.389	0.2487	-0.169
Mof_O 	O 	0.4643	0.279	0.458	-0.158
Mof_C 	C 	0.4364	0.379	0.277	0.197
Mof_C 	C 	0.462	0.383	0.233	-0.074
Mof_C 	C 	0.491	0.31	0.348	0.032
Mof_C 	C 	0.4634	0.307	0.391	0.191
Mof_C 	C 	0.4603	0.407	0.158	-0.021
Mof_H 	H 	0.4428	0.4262	0.1345	0.045
Mof_C 	C 	0.5174	0.289	0.381	-0.077
Mof_H 	H 	0.5195	0.2751	0.433	0.067
Mof_Co	Co	0.82283	0.82285	0.50854	1.156
Mof_N 	N 	0.86426	0.8206	0.4742	-0.284
Mof_N 	N 	0.93914	0.8381	0.3557	-0.205
Mof_O 	O 	0.78117	0.9034	0.5266	-0.501
Mof_O 	O 	0.81095	0.0273	0.4636	-0.381
Mof_O 	O 	0.81366	0.7144	0.4128	-0.439
Mof_O 	O 	0.76644	0.7118	0.3971	-0.428
Mof_O 	O 	0.82146	0.3379	0.0816	-0.456
Mof_O 	O 	0.77608	0.3918	0.0548	-0.444
Mof_O 	O 	0.9127	0.774	0.2536	-0.11
Mof_O 	O 	0.9652	0.893	0.4621	-0.117
Mof_C 	C 	0.78752	0.0164	0.494	0.317
Mof_C 	C 	0.76789	0.1364	0.4976	-0.07
Mof_C 	C 	0.77153	0.248	0.4498	-0.017
Mof_H 	H 	0.786	0.2472	0.4159	0.054
Mof_C 	C 	0.74668	0.1381	0.547	-0.014
Mof_H 	H 	0.7443	0.0628	0.579	0.051
Mof_C 	C 	0.79812	0.3935	0.0939	0.382
Mof_C 	C 	0.79088	0.6867	0.3785	0.385
Mof_C 	C 	0.79249	0.6119	0.304	-0.08
Mof_C 	C 	0.81765	0.5525	0.2843	-0.015
Mof_H 	H 	0.8335	0.5599	0.3166	0.054
Mof_C 	C 	0.81965	0.4798	0.2148	-0.018
Mof_H 	H 	0.8365	0.4375	0.2023	0.052
Mof_C 	C 	0.79685	0.4735	0.1675	-0.076
Mof_C 	C 	0.77186	0.5298	0.1887	-0.02
Mof_H 	H 	0.7558	0.5215	0.1572	0.054
Mof_C 	C 	0.77024	0.5994	0.2568	-0.011
Mof_H 	H 	0.7531	0.6383	0.2697	0.051
Mof_C 	C 	0.87826	0.9362	0.4661	0.168
Mof_H 	H 	0.8711	0.0178	0.4859	-0.037
Mof_C 	C 	0.9041	0.9425	0.4281	-0.287
Mof_H 	H 	0.9139	0.026	0.4248	0.149
Mof_C 	C 	0.914	0.8286	0.3976	0.313
Mof_C 	C 	0.9002	0.7106	0.4072	-0.316
Mof_H 	H 	0.9073	0.6277	0.3889	0.159
Mof_C 	C 	0.87567	0.7104	0.4436	0.206
Mof_H 	H 	0.8662	0.6262	0.4472	-0.038
Mof_C 	C 	0.9357	0.798	0.28	0.017
Mof_C 	C 	0.9608	0.805	0.237	0.03
Mof_C 	C 	0.9875	0.8425	0.2698	0.017
Mof_C 	C 	0.9899	0.884	0.354	-0.062
Mof_C 	C 	0.9639	0.882	0.396	0.032
Mof_C 	C 	0.9595	0.789	0.1617	-0.018
Mof_H 	H 	0.9419	0.7762	0.138	0.045
Mof_C 	C 	0.0156	0.903	0.3853	0.021
Mof_H 	H 	0.0177	0.9146	0.4371	0.044
Mof_O 	O 	0.9128	0.889	0.2487	-0.17
Mof_O 	O 	0.9643	0.779	0.458	-0.158
Mof_C 	C 	0.9364	0.879	0.277	0.198
Mof_C 	C 	0.962	0.883	0.233	-0.075
Mof_C 	C 	0.991	0.81	0.348	0.032
Mof_C 	C 	0.9634	0.807	0.391	0.19
Mof_C 	C 	0.9603	0.907	0.158	-0.021
Mof_H 	H 	0.9428	0.9262	0.1345	0.046
Mof_C 	C 	0.0174	0.789	0.381	-0.076
Mof_H 	H 	0.0195	0.7751	0.433	0.067
Mof_Co	Co	0.67717	0.32285	0.99146	1.172
Mof_N 	N 	0.63574	0.3206	0.0258	-0.292
Mof_N 	N 	0.56086	0.3381	0.1443	-0.206
Mof_O 	O 	0.71883	0.4034	0.9734	-0.472
Mof_O 	O 	0.68905	0.5273	0.0364	-0.388
Mof_O 	O 	0.68634	0.2144	0.0872	-0.449
Mof_O 	O 	0.73356	0.2118	0.1029	-0.434
Mof_O 	O 	0.67854	0.8379	0.4184	-0.446
Mof_O 	O 	0.72392	0.8918	0.4452	-0.434
Mof_O 	O 	0.5873	0.274	0.2464	-0.108
Mof_O 	O 	0.5348	0.393	0.0379	-0.126
Mof_C 	C 	0.71248	0.5164	0.006	0.308
Mof_C 	C 	0.73211	0.6364	0.0024	-0.159
Mof_C 	C 	0.72847	0.748	0.0502	0.063
Mof_H 	H 	0.714	0.7472	0.0841	0.025
Mof_C 	C 	0.75332	0.6381	0.953	0.098
Mof_H 	H 	0.7557	0.5628	0.921	0.018
Mof_C 	C 	0.70188	0.8935	0.4061	0.38
Mof_C 	C 	0.70912	0.1867	0.1215	0.386
Mof_C 	C 	0.70751	0.1119	0.196	-0.084
Mof_C 	C 	0.68235	0.0525	0.2157	-0.01
Mof_H 	H 	0.6665	0.0599	0.1834	0.052
Mof_C 	C 	0.68035	0.9798	0.2852	-0.021
Mof_H 	H 	0.6635	0.9375	0.2977	0.055
Mof_C 	C 	0.70315	0.9735	0.3325	-0.07
Mof_C 	C 	0.72814	0.0298	0.3113	-0.022
Mof_H 	H 	0.7442	0.0215	0.3428	0.056
Mof_C 	C 	0.72976	0.0994	0.2432	-0.007
Mof_H 	H 	0.7469	0.1383	0.2303	0.049
Mof_C 	C 	0.62174	0.4362	0.0339	0.167
Mof_H 	H 	0.6289	0.5178	0.0141	-0.044
Mof_C 	C 	0.5959	0.4425	0.0719	-0.289
Mof_H 	H 	0.5861	0.526	0.0752	0.146
Mof_C 	C 	0.586	0.3286	0.1024	0.312
Mof_C 	C 	0.5998	0.2106	0.0928	-0.318
Mof_H 	H 	0.5927	0.1277	0.1111	0.158
Mof_C 	C 	0.62433	0.2104	0.0564	0.205
Mof_H 	H 	0.6338	0.1262	0.0528	-0.043
Mof_C 	C 	0.5643	0.298	0.22	0.016
Mof_C 	C 	0.5392	0.305	0.263	0.029
Mof_C 	C 	0.5125	0.3425	0.2302	0.018
Mof_C 	C 	0.5101	0.384	0.146	-0.064
Mof_C 	C 	0.5361	0.382	0.104	0.031
Mof_C 	C 	0.5405	0.289	0.3383	-0.017
Mof_H 	H 	0.5581	0.2762	0.362	0.049
Mof_C 	C 	0.4844	0.403	0.1147	0.022
Mof_H 	H 	0.4823	0.4146	0.0629	0.036
Mof_O 	O 	0.5872	0.389	0.2513	-0.167
Mof_O 	O 	0.5357	0.279	0.042	-0.165
Mof_C 	C 	0.5636	0.379	0.223	0.198
Mof_C 	C 	0.538	0.383	0.267	-0.074
Mof_C 	C 	0.509	0.31	0.152	0.03
Mof_C 	C 	0.5366	0.307	0.109	0.193
Mof_C 	C 	0.5397	0.407	0.342	-0.021
Mof_H 	H 	0.5572	0.4262	0.3655	0.051
Mof_C 	C 	0.4826	0.289	0.119	-0.075
Mof_H 	H 	0.4805	0.2751	0.067	0.061
Mof_Co	Co	0.17717	0.82285	0.99146	1.172
Mof_N 	N 	0.13574	0.8206	0.0258	-0.292
Mof_N 	N 	0.06086	0.8381	0.1443	-0.206
Mof_O 	O 	0.21883	0.9034	0.9734	-0.474
Mof_O 	O 	0.18905	0.0273	0.0364	-0.388
Mof_O 	O 	0.18634	0.7144	0.0872	-0.449
Mof_O 	O 	0.23356	0.7118	0.1029	-0.433
Mof_O 	O 	0.17854	0.3379	0.4184	-0.446
Mof_O 	O 	0.22392	0.3918	0.4452	-0.434
Mof_O 	O 	0.0873	0.774	0.2464	-0.108
Mof_O 	O 	0.0348	0.893	0.0379	-0.125
Mof_C 	C 	0.21248	0.0164	0.006	0.31
Mof_C 	C 	0.23211	0.1364	0.0024	-0.161
Mof_C 	C 	0.22847	0.248	0.0502	0.065
Mof_H 	H 	0.214	0.2472	0.0841	0.024
Mof_C 	C 	0.25332	0.1381	0.953	0.1
Mof_H 	H 	0.2557	0.0628	0.921	0.017
Mof_C 	C 	0.20188	0.3935	0.4061	0.38
Mof_C 	C 	0.20912	0.6867	0.1215	0.386
Mof_C 	C 	0.20751	0.6119	0.196	-0.084
Mof_C 	C 	0.18235	0.5525	0.2157	-0.011
Mof_H 	H 	0.1665	0.5599	0.1834	0.052
Mof_C 	C 	0.18035	0.4798	0.2852	-0.021
Mof_H 	H 	0.1635	0.4375	0.2977	0.055
Mof_C 	C 	0.20315	0.4735	0.3325	-0.069
Mof_C 	C 	0.22814	0.5298	0.3113	-0.023
Mof_H 	H 	0.2442	0.5215	0.3428	0.056
Mof_C 	C 	0.22976	0.5994	0.2432	-0.007
Mof_H 	H 	0.2469	0.6383	0.2303	0.049
Mof_C 	C 	0.12174	0.9362	0.0339	0.167
Mof_H 	H 	0.1289	0.0178	0.0141	-0.044
Mof_C 	C 	0.0959	0.9425	0.0719	-0.289
Mof_H 	H 	0.0861	0.026	0.0752	0.146
Mof_C 	C 	0.086	0.8286	0.1024	0.312
Mof_C 	C 	0.0998	0.7106	0.0928	-0.318
Mof_H 	H 	0.0927	0.6277	0.1111	0.158
Mof_C 	C 	0.12433	0.7104	0.0564	0.205
Mof_H 	H 	0.1338	0.6262	0.0528	-0.043
Mof_C 	C 	0.0643	0.798	0.22	0.016
Mof_C 	C 	0.0392	0.805	0.263	0.029
Mof_C 	C 	0.0125	0.8425	0.2302	0.018
Mof_C 	C 	0.0101	0.884	0.146	-0.064
Mof_C 	C 	0.0361	0.882	0.104	0.031
Mof_C 	C 	0.0405	0.789	0.3383	-0.018
Mof_H 	H 	0.0581	0.7762	0.362	0.049
Mof_C 	C 	0.9844	0.903	0.1147	0.022
Mof_H 	H 	0.9823	0.9146	0.0629	0.036
Mof_O 	O 	0.0872	0.889	0.2513	-0.167
Mof_O 	O 	0.0357	0.779	0.042	-0.165
Mof_C 	C 	0.0636	0.879	0.223	0.198
Mof_C 	C 	0.038	0.883	0.267	-0.074
Mof_C 	C 	0.009	0.81	0.152	0.03
Mof_C 	C 	0.0366	0.807	0.109	0.193
Mof_C 	C 	0.0397	0.907	0.342	-0.021
Mof_H 	H 	0.0572	0.9262	0.3655	0.051
Mof_C 	C 	0.9826	0.789	0.119	-0.076
Mof_H 	H 	0.9805	0.7751	0.067	0.061
Mof_Co	Co	0.75	0.75	0.5	1.204
Mof_Co	Co	0.25	0.75	-0	1.19
Mof_Co	Co	0.25	0.25	0.5	1.204
Mof_Co	Co	0.75	0.25	-0	1.19
_end
