data_functionalizedCrystal
_audit_creation_method	'EQeq! by Chris Wilmer'
_symmetry_space_group_name_H-M	'P1'
_symmetry_Int_Tables_number	1
_symmetry_cell_setting	triclinic
loop_
_symmetry_equiv_pos_as_xyz
  x,y,z
_cell_length_a	28.3499
_cell_length_b	28.3499
_cell_length_c	28.3499
_cell_angle_alpha	60
_cell_angle_beta	60
_cell_angle_gamma	60
loop_
_atom_site_label
_atom_site_type_symbol
_atom_site_fract_x
_atom_site_fract_y
_atom_site_fract_z
_atom_site_charge
Mof_Cu	Cu	0.5	0.78166	0.5	0.903
Mof_Cu	Cu	0.5	0.12557	0.5	0.917
Mof_Cu	Cu	0.5	0.5	0.78166	0.903
Mof_Cu	Cu	0.78166	0.21834	0.5	0.903
Mof_Cu	Cu	0.5	0.5	0.12557	0.917
Mof_Cu	Cu	0.78166	0.5	0.21834	0.903
Mof_Cu	Cu	0.12557	0.87443	0.5	0.917
Mof_Cu	Cu	0.5	0.12557	0.87443	0.917
Mof_Cu	Cu	0.5	0.5	0.87443	0.917
Mof_Cu	Cu	0.21834	0.78166	0.5	0.903
Mof_Cu	Cu	0.87443	0.12557	0.5	0.917
Mof_Cu	Cu	0.5	0.21834	0.5	0.903
Mof_Cu	Cu	0.5	0.78166	0.21834	0.903
Mof_Cu	Cu	0.78166	0.5	0.5	0.903
Mof_Cu	Cu	0.87443	0.5	0.5	0.917
Mof_Cu	Cu	0.12557	0.5	0.87443	0.917
Mof_Cu	Cu	0.5	0.87443	0.12557	0.917
Mof_Cu	Cu	0.21834	0.5	0.5	0.903
Mof_Cu	Cu	0.21834	0.5	0.78166	0.904
Mof_Cu	Cu	0.5	0.5	0.21834	0.904
Mof_Cu	Cu	0.87443	0.5	0.12557	0.918
Mof_Cu	Cu	0.5	0.87443	0.5	0.918
Mof_Cu	Cu	0.12557	0.5	0.5	0.918
Mof_Cu	Cu	0.5	0.21834	0.78166	0.904
Mof_H 	H 	0.0276	0.6834	0.8226	0.132
Mof_H 	H 	0.5172	0.323	0.8368	0.086
Mof_H 	H 	0.5672	0.0388	0.4328	0.04
Mof_H 	H 	0.5172	0.8368	0.323	0.086
Mof_H 	H 	0.5202	0.059	0.2096	0.101
Mof_H 	H 	0.4798	0.7888	0.941	0.101
Mof_H 	H 	0.2096	0.5202	0.2112	0.101
Mof_H 	H 	0.8368	0.323	0.5172	0.086
Mof_H 	H 	0.2112	0.059	0.2096	0.101
Mof_H 	H 	0.9724	0.3166	0.1774	0.132
Mof_H 	H 	0.9612	0.5672	0.0388	0.04
Mof_H 	H 	0.8226	0.0276	0.6834	0.132
Mof_H 	H 	0.7888	0.4798	0.7904	0.101
Mof_H 	H 	0.5336	0.1774	0.3166	0.132
Mof_H 	H 	0.0276	0.8226	0.4664	0.132
Mof_H 	H 	0.2112	0.059	0.5202	0.101
Mof_H 	H 	0.323	0.323	0.8368	0.086
Mof_H 	H 	0.6834	0.0276	0.8226	0.132
Mof_H 	H 	0.3166	0.1774	0.5336	0.132
Mof_H 	H 	0.5202	0.2096	0.2112	0.101
Mof_H 	H 	0.1632	0.677	0.4828	0.086
Mof_H 	H 	0.1774	0.3166	0.9724	0.132
Mof_H 	H 	0.323	0.323	0.5172	0.086
Mof_H 	H 	0.2096	0.2112	0.5202	0.101
Mof_H 	H 	0.1774	0.3166	0.5336	0.132
Mof_H 	H 	0.2112	0.5202	0.2096	0.101
Mof_H 	H 	0.059	0.2096	0.5202	0.101
Mof_H 	H 	0.5336	0.3166	0.1774	0.132
Mof_H 	H 	0.7904	0.941	0.4798	0.101
Mof_H 	H 	0.9724	0.3166	0.5336	0.132
Mof_H 	H 	0.3166	0.5336	0.9724	0.132
Mof_H 	H 	0.059	0.2096	0.2112	0.101
Mof_H 	H 	0.8368	0.323	0.323	0.086
Mof_H 	H 	0.0388	0.5672	0.9612	0.04
Mof_H 	H 	0.4328	0.9612	0.0388	0.04
Mof_H 	H 	0.9724	0.5336	0.3166	0.132
Mof_H 	H 	0.7888	0.7904	0.941	0.101
Mof_H 	H 	0.4798	0.7888	0.7904	0.101
Mof_H 	H 	0.4328	0.0388	0.5672	0.04
Mof_H 	H 	0.5336	0.3166	0.9724	0.132
Mof_H 	H 	0.323	0.8368	0.323	0.086
Mof_H 	H 	0.941	0.4798	0.7888	0.101
Mof_H 	H 	0.4664	0.8226	0.0276	0.132
Mof_H 	H 	0.4664	0.0276	0.6834	0.132
Mof_H 	H 	0.0388	0.4328	0.9612	0.04
Mof_H 	H 	0.4328	0.9612	0.5672	0.04
Mof_H 	H 	0.3166	0.9724	0.1774	0.132
Mof_H 	H 	0.3166	0.5336	0.1774	0.132
Mof_H 	H 	0.0276	0.4664	0.8226	0.132
Mof_H 	H 	0.5336	0.9724	0.3166	0.132
Mof_H 	H 	0.323	0.5172	0.8368	0.086
Mof_H 	H 	0.0388	0.4328	0.5672	0.04
Mof_H 	H 	0.4328	0.5672	0.9612	0.04
Mof_H 	H 	0.7904	0.7888	0.4798	0.101
Mof_H 	H 	0.5336	0.1774	0.9724	0.132
Mof_H 	H 	0.059	0.5202	0.2096	0.101
Mof_H 	H 	0.5672	0.4328	0.9612	0.04
Mof_H 	H 	0.677	0.1632	0.677	0.086
Mof_H 	H 	0.6834	0.8226	0.4664	0.132
Mof_H 	H 	0.941	0.7904	0.7888	0.101
Mof_H 	H 	0.3166	0.1774	0.9724	0.132
Mof_H 	H 	0.7904	0.4798	0.7888	0.101
Mof_H 	H 	0.8226	0.6834	0.0276	0.132
Mof_H 	H 	0.9612	0.5672	0.4328	0.04
Mof_H 	H 	0.0276	0.4664	0.6834	0.132
Mof_H 	H 	0.941	0.7904	0.4798	0.101
Mof_H 	H 	0.5202	0.2096	0.059	0.101
Mof_H 	H 	0.1632	0.4828	0.677	0.086
Mof_H 	H 	0.4664	0.6834	0.8226	0.132
Mof_H 	H 	0.5672	0.9612	0.4328	0.04
Mof_H 	H 	0.6834	0.0276	0.4664	0.132
Mof_H 	H 	0.7888	0.941	0.7904	0.101
Mof_H 	H 	0.4328	0.5672	0.0388	0.04
Mof_H 	H 	0.941	0.4798	0.7904	0.101
Mof_H 	H 	0.7888	0.7904	0.4798	0.101
Mof_H 	H 	0.4798	0.7904	0.941	0.101
Mof_H 	H 	0.2112	0.2096	0.059	0.101
Mof_H 	H 	0.7904	0.941	0.7888	0.101
Mof_H 	H 	0.2096	0.5202	0.059	0.101
Mof_H 	H 	0.677	0.4828	0.677	0.086
Mof_H 	H 	0.941	0.7888	0.7904	0.101
Mof_H 	H 	0.9724	0.5336	0.1774	0.132
Mof_H 	H 	0.0276	0.6834	0.4664	0.132
Mof_H 	H 	0.2112	0.2096	0.5202	0.101
Mof_H 	H 	0.5672	0.0388	0.9612	0.04
Mof_H 	H 	0.1632	0.677	0.677	0.086
Mof_H 	H 	0.7904	0.7888	0.941	0.101
Mof_H 	H 	0.059	0.2112	0.5202	0.101
Mof_H 	H 	0.0388	0.9612	0.4328	0.04
Mof_H 	H 	0.8226	0.0276	0.4664	0.132
Mof_H 	H 	0.677	0.677	0.1632	0.086
Mof_H 	H 	0.4328	0.0388	0.9612	0.04
Mof_H 	H 	0.2096	0.059	0.5202	0.101
Mof_H 	H 	0.7888	0.4798	0.941	0.101
Mof_H 	H 	0.5336	0.9724	0.1774	0.132
Mof_H 	H 	0.2096	0.059	0.2112	0.101
Mof_H 	H 	0.9612	0.0388	0.4328	0.04
Mof_H 	H 	0.059	0.5202	0.2112	0.101
Mof_H 	H 	0.5202	0.2112	0.059	0.101
Mof_H 	H 	0.4664	0.6834	0.0276	0.132
Mof_H 	H 	0.677	0.4828	0.1632	0.086
Mof_H 	H 	0.5672	0.4328	0.0388	0.04
Mof_H 	H 	0.4798	0.941	0.7904	0.101
Mof_H 	H 	0.4664	0.0276	0.8226	0.132
Mof_H 	H 	0.1774	0.5336	0.9724	0.132
Mof_H 	H 	0.6834	0.4664	0.8226	0.132
Mof_H 	H 	0.6834	0.4664	0.0276	0.132
Mof_H 	H 	0.9724	0.1774	0.5336	0.132
Mof_H 	H 	0.0388	0.5672	0.4328	0.04
Mof_H 	H 	0.9612	0.4328	0.5672	0.04
Mof_H 	H 	0.4798	0.941	0.7888	0.101
Mof_H 	H 	0.8368	0.5172	0.323	0.086
Mof_H 	H 	0.2112	0.5202	0.059	0.101
Mof_H 	H 	0.8226	0.4664	0.0276	0.132
Mof_H 	H 	0.4828	0.1632	0.677	0.086
Mof_H 	H 	0.677	0.1632	0.4828	0.086
Mof_H 	H 	0.6834	0.8226	0.0276	0.132
Mof_H 	H 	0.677	0.677	0.4828	0.086
Mof_H 	H 	0.7888	0.941	0.4798	0.101
Mof_H 	H 	0.7904	0.4798	0.941	0.101
Mof_H 	H 	0.9612	0.0388	0.5672	0.04
Mof_H 	H 	0.5202	0.059	0.2112	0.101
Mof_H 	H 	0.5672	0.9612	0.0388	0.04
Mof_H 	H 	0.9612	0.4328	0.0388	0.04
Mof_H 	H 	0.5202	0.2112	0.2096	0.101
Mof_H 	H 	0.1774	0.9724	0.3166	0.132
Mof_H 	H 	0.1774	0.9724	0.5336	0.132
Mof_H 	H 	0.4828	0.677	0.677	0.086
Mof_H 	H 	0.059	0.2112	0.2096	0.101
Mof_H 	H 	0.0388	0.9612	0.5672	0.04
Mof_H 	H 	0.4664	0.8226	0.6834	0.132
Mof_H 	H 	0.323	0.5172	0.323	0.086
Mof_H 	H 	0.3166	0.9724	0.5336	0.132
Mof_H 	H 	0.941	0.7888	0.4798	0.101
Mof_H 	H 	0.0276	0.8226	0.6834	0.132
Mof_H 	H 	0.4798	0.7904	0.7888	0.101
Mof_H 	H 	0.9724	0.1774	0.3166	0.132
Mof_H 	H 	0.1774	0.5336	0.3166	0.132
Mof_H 	H 	0.323	0.8368	0.5172	0.086
Mof_H 	H 	0.8226	0.4664	0.6834	0.132
Mof_H 	H 	0.4828	0.677	0.1632	0.086
Mof_H 	H 	0.5172	0.323	0.323	0.086
Mof_H 	H 	0.8226	0.6834	0.4664	0.132
Mof_H 	H 	0.2096	0.2112	0.059	0.101
Mof_C 	C 	0.46434	0.7577	0.02026	0.272
Mof_C 	C 	0.12678	0.4834	0.60666	0.329
Mof_C 	C 	0.2423	0.53566	0.2423	0.272
Mof_C 	C 	0.12678	0.60666	0.4834	0.329
Mof_C 	C 	0.7577	0.46434	0.7577	0.272
Mof_C 	C 	0.69696	0.69696	0.12646	-0.07
Mof_C 	C 	0.75484	0.47714	0.66982	0.024
Mof_C 	C 	0.04591	0.70117	0.46889	-0.198
Mof_C 	C 	0.53566	0.2423	0.2423	0.272
Mof_C 	C 	0.04591	0.70117	0.78403	-0.198
Mof_C 	C 	0.5166	0.21684	0.87322	0.329
Mof_C 	C 	0.21597	0.95409	0.53111	-0.198
Mof_C 	C 	0.60666	0.12678	0.4834	0.329
Mof_C 	C 	0.78316	0.12678	0.60666	0.329
Mof_C 	C 	0.02341	0.53827	0.46173	0.015
Mof_C 	C 	0.29883	0.95409	0.53111	-0.198
Mof_C 	C 	0.95409	0.53111	0.21597	-0.198
Mof_C 	C 	0.30304	0.30304	0.52038	-0.071
Mof_C 	C 	0.2423	0.2423	0.97974	0.271
Mof_C 	C 	0.02341	0.46173	0.53827	0.015
Mof_C 	C 	0.21684	0.87322	0.39334	0.329
Mof_C 	C 	0.87322	0.5166	0.39334	0.329
Mof_C 	C 	0.21684	0.39334	0.87322	0.329
Mof_C 	C 	0.52286	0.9018	0.24516	0.024
Mof_C 	C 	0.52038	0.30304	0.30304	-0.071
Mof_C 	C 	0.78403	0.46889	0.70117	-0.199
Mof_C 	C 	0.97659	0.02341	0.46173	0.015
Mof_C 	C 	0.47714	0.75484	0.0982	0.024
Mof_C 	C 	0.12646	0.69696	0.47962	-0.071
Mof_C 	C 	0.9018	0.33018	0.24516	0.024
Mof_C 	C 	0.33018	0.52286	0.24516	0.024
Mof_C 	C 	0.0982	0.75484	0.47714	0.024
Mof_C 	C 	0.5166	0.39334	0.87322	0.329
Mof_C 	C 	0.12678	0.4834	0.78316	0.329
Mof_C 	C 	0.70117	0.78403	0.46889	-0.199
Mof_C 	C 	0.66982	0.0982	0.75484	0.024
Mof_C 	C 	0.53111	0.21597	0.95409	-0.198
Mof_C 	C 	0.53566	0.97974	0.2423	0.272
Mof_C 	C 	0.52286	0.24516	0.33018	0.024
Mof_C 	C 	0.46889	0.04591	0.70117	-0.198
Mof_C 	C 	0.4834	0.78316	0.60666	0.329
Mof_C 	C 	0.30304	0.87354	0.52038	-0.071
Mof_C 	C 	0.46434	0.02026	0.7577	0.272
Mof_C 	C 	0.87354	0.30304	0.52038	-0.071
Mof_C 	C 	0.75484	0.47714	0.0982	0.024
Mof_C 	C 	0.53111	0.29883	0.95409	-0.198
Mof_C 	C 	0.33018	0.9018	0.24516	0.024
Mof_C 	C 	0.78316	0.4834	0.12678	0.329
Mof_C 	C 	0.69696	0.69696	0.47962	-0.071
Mof_C 	C 	0.24516	0.9018	0.33018	0.024
Mof_C 	C 	0.5166	0.21684	0.39334	0.329
Mof_C 	C 	0.30304	0.52038	0.30304	-0.071
Mof_C 	C 	0.0982	0.47714	0.66982	0.024
Mof_C 	C 	0.33018	0.24516	0.52286	0.024
Mof_C 	C 	0.24516	0.52286	0.33018	0.024
Mof_C 	C 	0.7577	0.02026	0.46434	0.272
Mof_C 	C 	0.21684	0.39334	0.5166	0.329
Mof_C 	C 	0.53827	0.46173	0.02341	0.015
Mof_C 	C 	0.02341	0.97659	0.53827	0.015
Mof_C 	C 	0.46173	0.97659	0.53827	0.015
Mof_C 	C 	0.47714	0.66982	0.75484	0.024
Mof_C 	C 	0.69696	0.47962	0.12646	-0.071
Mof_C 	C 	0.7577	0.7577	0.46434	0.272
Mof_C 	C 	0.53111	0.29883	0.21597	-0.199
Mof_C 	C 	0.87322	0.21684	0.39334	0.329
Mof_C 	C 	0.69696	0.12646	0.69696	-0.07
Mof_C 	C 	0.04591	0.46889	0.78403	-0.198
Mof_C 	C 	0.9018	0.52286	0.33018	0.024
Mof_C 	C 	0.78403	0.04591	0.70117	-0.198
Mof_C 	C 	0.24516	0.52286	0.9018	0.024
Mof_C 	C 	0.87322	0.39334	0.21684	0.329
Mof_C 	C 	0.46889	0.78403	0.70117	-0.199
Mof_C 	C 	0.04591	0.46889	0.70117	-0.198
Mof_C 	C 	0.12678	0.78316	0.4834	0.329
Mof_C 	C 	0.46173	0.53827	0.02341	0.015
Mof_C 	C 	0.21597	0.53111	0.29883	-0.199
Mof_C 	C 	0.4834	0.60666	0.12678	0.329
Mof_C 	C 	0.21597	0.53111	0.95409	-0.198
Mof_C 	C 	0.7577	0.7577	0.02026	0.271
Mof_C 	C 	0.46889	0.70117	0.04591	-0.198
Mof_C 	C 	0.53111	0.95409	0.21597	-0.198
Mof_C 	C 	0.47714	0.0982	0.75484	0.024
Mof_C 	C 	0.12678	0.60666	0.78316	0.329
Mof_C 	C 	0.52286	0.24516	0.9018	0.024
Mof_C 	C 	0.4834	0.12678	0.60666	0.329
Mof_C 	C 	0.60666	0.78316	0.12678	0.329
Mof_C 	C 	0.95409	0.53111	0.29883	-0.198
Mof_C 	C 	0.02026	0.7577	0.7577	0.271
Mof_C 	C 	0.33018	0.24516	0.9018	0.024
Mof_C 	C 	0.9018	0.24516	0.52286	0.024
Mof_C 	C 	0.5166	0.87322	0.21684	0.329
Mof_C 	C 	0.97974	0.2423	0.53566	0.272
Mof_C 	C 	0.39334	0.87322	0.5166	0.329
Mof_C 	C 	0.0982	0.47714	0.75484	0.024
Mof_C 	C 	0.75484	0.0982	0.47714	0.024
Mof_C 	C 	0.87354	0.30304	0.30304	-0.07
Mof_C 	C 	0.97659	0.02341	0.53827	0.015
Mof_C 	C 	0.66982	0.75484	0.0982	0.024
Mof_C 	C 	0.97659	0.46173	0.53827	0.015
Mof_C 	C 	0.2423	0.2423	0.53566	0.272
Mof_C 	C 	0.7577	0.02026	0.7577	0.271
Mof_C 	C 	0.39334	0.5166	0.87322	0.329
Mof_C 	C 	0.78316	0.12678	0.4834	0.329
Mof_C 	C 	0.47714	0.0982	0.66982	0.024
Mof_C 	C 	0.21684	0.87322	0.5166	0.329
Mof_C 	C 	0.87322	0.39334	0.5166	0.329
Mof_C 	C 	0.4834	0.12678	0.78316	0.329
Mof_C 	C 	0.46173	0.97659	0.02341	0.015
Mof_C 	C 	0.33018	0.9018	0.52286	0.024
Mof_C 	C 	0.2423	0.97974	0.2423	0.271
Mof_C 	C 	0.53827	0.46173	0.97659	0.015
Mof_C 	C 	0.66982	0.75484	0.47714	0.024
Mof_C 	C 	0.95409	0.29883	0.53111	-0.198
Mof_C 	C 	0.70117	0.46889	0.04591	-0.198
Mof_C 	C 	0.21597	0.95409	0.29883	-0.198
Mof_C 	C 	0.46434	0.7577	0.7577	0.272
Mof_C 	C 	0.29883	0.53111	0.21597	-0.199
Mof_C 	C 	0.21597	0.29883	0.53111	-0.199
Mof_C 	C 	0.97659	0.46173	0.02341	0.015
Mof_C 	C 	0.21684	0.5166	0.87322	0.329
Mof_C 	C 	0.46173	0.02341	0.53827	0.015
Mof_C 	C 	0.97659	0.53827	0.46173	0.015
Mof_C 	C 	0.24516	0.33018	0.9018	0.024
Mof_C 	C 	0.95409	0.21597	0.53111	-0.198
Mof_C 	C 	0.70117	0.78403	0.04591	-0.198
Mof_C 	C 	0.78403	0.70117	0.46889	-0.199
Mof_C 	C 	0.29883	0.95409	0.21597	-0.198
Mof_C 	C 	0.60666	0.4834	0.12678	0.329
Mof_C 	C 	0.24516	0.33018	0.52286	0.024
Mof_C 	C 	0.78316	0.4834	0.60666	0.329
Mof_C 	C 	0.12646	0.69696	0.69696	-0.07
Mof_C 	C 	0.95409	0.21597	0.29883	-0.198
Mof_C 	C 	0.53827	0.02341	0.97659	0.015
Mof_C 	C 	0.97659	0.53827	0.02341	0.015
Mof_C 	C 	0.02026	0.46434	0.7577	0.272
Mof_C 	C 	0.66982	0.47714	0.0982	0.024
Mof_C 	C 	0.39334	0.87322	0.21684	0.329
Mof_C 	C 	0.60666	0.4834	0.78316	0.329
Mof_C 	C 	0.7577	0.46434	0.02026	0.272
Mof_C 	C 	0.2423	0.53566	0.97974	0.272
Mof_C 	C 	0.2423	0.97974	0.53566	0.272
Mof_C 	C 	0.53827	0.97659	0.46173	0.015
Mof_C 	C 	0.30304	0.52038	0.87354	-0.071
Mof_C 	C 	0.78316	0.60666	0.12678	0.329
Mof_C 	C 	0.52286	0.9018	0.33018	0.024
Mof_C 	C 	0.69696	0.12646	0.47962	-0.071
Mof_C 	C 	0.87354	0.52038	0.30304	-0.071
Mof_C 	C 	0.02341	0.97659	0.46173	0.015
Mof_C 	C 	0.24516	0.9018	0.52286	0.024
Mof_C 	C 	0.02341	0.46173	0.97659	0.015
Mof_C 	C 	0.75484	0.0982	0.66982	0.024
Mof_C 	C 	0.53827	0.97659	0.02341	0.015
Mof_C 	C 	0.29883	0.53111	0.95409	-0.198
Mof_C 	C 	0.78403	0.04591	0.46889	-0.198
Mof_C 	C 	0.52038	0.87354	0.30304	-0.071
Mof_C 	C 	0.02341	0.53827	0.97659	0.015
Mof_C 	C 	0.5166	0.87322	0.39334	0.329
Mof_C 	C 	0.87322	0.21684	0.5166	0.329
Mof_C 	C 	0.47962	0.69696	0.69696	-0.071
Mof_C 	C 	0.12646	0.47962	0.69696	-0.071
Mof_C 	C 	0.53566	0.2423	0.97974	0.272
Mof_C 	C 	0.39334	0.21684	0.87322	0.329
Mof_C 	C 	0.95409	0.29883	0.21597	-0.198
Mof_C 	C 	0.60666	0.78316	0.4834	0.329
Mof_C 	C 	0.47962	0.12646	0.69696	-0.071
Mof_C 	C 	0.69696	0.47962	0.69696	-0.071
Mof_C 	C 	0.0982	0.66982	0.47714	0.024
Mof_C 	C 	0.4834	0.60666	0.78316	0.329
Mof_C 	C 	0.5166	0.39334	0.21684	0.329
Mof_C 	C 	0.21684	0.5166	0.39334	0.329
Mof_C 	C 	0.30304	0.87354	0.30304	-0.07
Mof_C 	C 	0.4834	0.78316	0.12678	0.329
Mof_C 	C 	0.60666	0.12678	0.78316	0.329
Mof_C 	C 	0.46889	0.70117	0.78403	-0.199
Mof_C 	C 	0.70117	0.04591	0.78403	-0.198
Mof_C 	C 	0.75484	0.66982	0.47714	0.024
Mof_C 	C 	0.0982	0.66982	0.75484	0.024
Mof_C 	C 	0.53111	0.95409	0.29883	-0.198
Mof_C 	C 	0.52038	0.30304	0.87354	-0.071
Mof_C 	C 	0.46889	0.78403	0.04591	-0.198
Mof_C 	C 	0.39334	0.5166	0.21684	0.329
Mof_C 	C 	0.70117	0.04591	0.46889	-0.198
Mof_C 	C 	0.9018	0.33018	0.52286	0.024
Mof_C 	C 	0.53111	0.21597	0.29883	-0.199
Mof_C 	C 	0.02026	0.7577	0.46434	0.272
Mof_C 	C 	0.29883	0.21597	0.53111	-0.199
Mof_C 	C 	0.78403	0.70117	0.04591	-0.198
Mof_C 	C 	0.46889	0.04591	0.78403	-0.198
Mof_C 	C 	0.66982	0.0982	0.47714	0.024
Mof_C 	C 	0.21597	0.29883	0.95409	-0.198
Mof_C 	C 	0.47714	0.75484	0.66982	0.024
Mof_C 	C 	0.52286	0.33018	0.24516	0.024
Mof_C 	C 	0.75484	0.66982	0.0982	0.024
Mof_C 	C 	0.30304	0.30304	0.87354	-0.07
Mof_C 	C 	0.9018	0.24516	0.33018	0.024
Mof_C 	C 	0.46173	0.02341	0.97659	0.015
Mof_C 	C 	0.46173	0.53827	0.97659	0.015
Mof_C 	C 	0.97974	0.2423	0.2423	0.271
Mof_C 	C 	0.97974	0.53566	0.2423	0.272
Mof_C 	C 	0.53827	0.02341	0.46173	0.015
Mof_C 	C 	0.87322	0.5166	0.21684	0.329
Mof_C 	C 	0.47714	0.66982	0.0982	0.024
Mof_C 	C 	0.04591	0.78403	0.70117	-0.198
Mof_C 	C 	0.39334	0.21684	0.5166	0.329
Mof_C 	C 	0.66982	0.47714	0.75484	0.024
Mof_C 	C 	0.47962	0.69696	0.12646	-0.071
Mof_C 	C 	0.52286	0.33018	0.9018	0.024
Mof_C 	C 	0.78316	0.60666	0.4834	0.329
Mof_C 	C 	0.04591	0.78403	0.46889	-0.198
Mof_C 	C 	0.29883	0.21597	0.95409	-0.198
Mof_C 	C 	0.12678	0.78316	0.60666	0.329
Mof_C 	C 	0.70117	0.46889	0.78403	-0.199
Mof_C 	C 	0.33018	0.52286	0.9018	0.024
Mof_C 	C 	0.9018	0.52286	0.24516	0.024
Mof_C 	C 	0.78403	0.46889	0.04591	-0.198
Mof_C 	C 	0.0982	0.75484	0.66982	0.024
Mof_N 	N 	0.5	0.04912	0.5	-0.164
Mof_N 	N 	0.5	0.95088	0.5	-0.164
Mof_N 	N 	0.95088	0.5	0.5	-0.164
Mof_N 	N 	0.5	0.95088	0.04912	-0.164
Mof_N 	N 	0.95088	0.04912	0.5	-0.164
Mof_N 	N 	0.5	0.5	0.04912	-0.164
Mof_N 	N 	0.04912	0.95088	0.5	-0.164
Mof_N 	N 	0.95088	0.5	0.04912	-0.164
Mof_N 	N 	0.5	0.04912	0.95088	-0.164
Mof_N 	N 	0.5	0.5	0.95088	-0.164
Mof_N 	N 	0.04912	0.5	0.95088	-0.164
Mof_N 	N 	0.04912	0.5	0.5	-0.164
Mof_O 	O 	0.51437	0.41697	0.16657	-0.389
Mof_O 	O 	0.58278	0.7547	0.4864	-0.402
Mof_O 	O 	0.48563	0.09791	0.58303	-0.389
Mof_O 	O 	0.79043	0.96907	0.79043	-0.363
Mof_O 	O 	0.83343	0.58303	0.09791	-0.389
Mof_O 	O 	0.90209	0.16657	0.41697	-0.389
Mof_O 	O 	0.48563	0.58303	0.83343	-0.389
Mof_O 	O 	0.4864	0.17612	0.58278	-0.402
Mof_O 	O 	0.7547	0.4864	0.17612	-0.402
Mof_O 	O 	0.79043	0.79043	0.96907	-0.363
Mof_O 	O 	0.09791	0.48563	0.83343	-0.389
Mof_O 	O 	0.41697	0.16657	0.90209	-0.389
Mof_O 	O 	0.17612	0.4864	0.58278	-0.402
Mof_O 	O 	0.51437	0.41697	0.90209	-0.389
Mof_O 	O 	0.41697	0.90209	0.16657	-0.389
Mof_O 	O 	0.20957	0.03093	0.20957	-0.363
Mof_O 	O 	0.41722	0.2453	0.82388	-0.402
Mof_O 	O 	0.16657	0.90209	0.51437	-0.389
Mof_O 	O 	0.82388	0.41722	0.5136	-0.402
Mof_O 	O 	0.58303	0.48563	0.09791	-0.389
Mof_O 	O 	0.41697	0.51437	0.16657	-0.389
Mof_O 	O 	0.41722	0.5136	0.2453	-0.402
Mof_O 	O 	0.2453	0.5136	0.82388	-0.402
Mof_O 	O 	0.58303	0.48563	0.83343	-0.389
Mof_O 	O 	0.82388	0.41722	0.2453	-0.402
Mof_O 	O 	0.45007	0.96907	0.79043	-0.364
Mof_O 	O 	0.90209	0.51437	0.41697	-0.389
Mof_O 	O 	0.41722	0.82388	0.5136	-0.402
Mof_O 	O 	0.58278	0.7547	0.17612	-0.402
Mof_O 	O 	0.58278	0.4864	0.17612	-0.402
Mof_O 	O 	0.90209	0.16657	0.51437	-0.389
Mof_O 	O 	0.7547	0.58278	0.17612	-0.402
Mof_O 	O 	0.41697	0.16657	0.51437	-0.389
Mof_O 	O 	0.51437	0.90209	0.41697	-0.389
Mof_O 	O 	0.4864	0.58278	0.7547	-0.402
Mof_O 	O 	0.48563	0.83343	0.09791	-0.389
Mof_O 	O 	0.4864	0.7547	0.17612	-0.402
Mof_O 	O 	0.96907	0.79043	0.45007	-0.364
Mof_O 	O 	0.79043	0.45007	0.96907	-0.364
Mof_O 	O 	0.54993	0.03093	0.20957	-0.364
Mof_O 	O 	0.2453	0.41722	0.5136	-0.402
Mof_O 	O 	0.41722	0.82388	0.2453	-0.402
Mof_O 	O 	0.96907	0.45007	0.79043	-0.364
Mof_O 	O 	0.03093	0.20957	0.54993	-0.364
Mof_O 	O 	0.79043	0.45007	0.79043	-0.364
Mof_O 	O 	0.5136	0.41722	0.82388	-0.402
Mof_O 	O 	0.03093	0.20957	0.20957	-0.363
Mof_O 	O 	0.41722	0.5136	0.82388	-0.402
Mof_O 	O 	0.16657	0.41697	0.51437	-0.389
Mof_O 	O 	0.82388	0.2453	0.5136	-0.402
Mof_O 	O 	0.17612	0.4864	0.7547	-0.402
Mof_O 	O 	0.48563	0.09791	0.83343	-0.389
Mof_O 	O 	0.09791	0.83343	0.48563	-0.389
Mof_O 	O 	0.41697	0.90209	0.51437	-0.389
Mof_O 	O 	0.16657	0.41697	0.90209	-0.389
Mof_O 	O 	0.51437	0.90209	0.16657	-0.389
Mof_O 	O 	0.82388	0.5136	0.2453	-0.402
Mof_O 	O 	0.16657	0.51437	0.41697	-0.389
Mof_O 	O 	0.41722	0.2453	0.5136	-0.402
Mof_O 	O 	0.7547	0.58278	0.4864	-0.402
Mof_O 	O 	0.5136	0.82388	0.41722	-0.402
Mof_O 	O 	0.41697	0.51437	0.90209	-0.389
Mof_O 	O 	0.4864	0.7547	0.58278	-0.402
Mof_O 	O 	0.20957	0.54993	0.20957	-0.364
Mof_O 	O 	0.48563	0.58303	0.09791	-0.389
Mof_O 	O 	0.82388	0.5136	0.41722	-0.402
Mof_O 	O 	0.54993	0.20957	0.03093	-0.364
Mof_O 	O 	0.17612	0.7547	0.58278	-0.402
Mof_O 	O 	0.2453	0.41722	0.82388	-0.402
Mof_O 	O 	0.58303	0.83343	0.09791	-0.389
Mof_O 	O 	0.20957	0.54993	0.03093	-0.364
Mof_O 	O 	0.5136	0.82388	0.2453	-0.402
Mof_O 	O 	0.5136	0.41722	0.2453	-0.402
Mof_O 	O 	0.09791	0.58303	0.48563	-0.389
Mof_O 	O 	0.17612	0.7547	0.4864	-0.402
Mof_O 	O 	0.82388	0.2453	0.41722	-0.402
Mof_O 	O 	0.96907	0.79043	0.79043	-0.363
Mof_O 	O 	0.58278	0.17612	0.4864	-0.402
Mof_O 	O 	0.58303	0.83343	0.48563	-0.389
Mof_O 	O 	0.7547	0.17612	0.4864	-0.402
Mof_O 	O 	0.2453	0.5136	0.41722	-0.402
Mof_O 	O 	0.45007	0.79043	0.79043	-0.364
Mof_O 	O 	0.83343	0.58303	0.48563	-0.389
Mof_O 	O 	0.09791	0.83343	0.58303	-0.389
Mof_O 	O 	0.03093	0.54993	0.20957	-0.364
Mof_O 	O 	0.90209	0.51437	0.16657	-0.389
Mof_O 	O 	0.45007	0.79043	0.96907	-0.364
Mof_O 	O 	0.2453	0.82388	0.5136	-0.402
Mof_O 	O 	0.83343	0.09791	0.58303	-0.389
Mof_O 	O 	0.58278	0.17612	0.7547	-0.402
Mof_O 	O 	0.4864	0.17612	0.7547	-0.402
Mof_O 	O 	0.83343	0.09791	0.48563	-0.389
Mof_O 	O 	0.79043	0.96907	0.45007	-0.364
Mof_O 	O 	0.4864	0.58278	0.17612	-0.402
Mof_O 	O 	0.58278	0.4864	0.7547	-0.402
Mof_O 	O 	0.5136	0.2453	0.82388	-0.402
Mof_O 	O 	0.54993	0.20957	0.20957	-0.364
Mof_O 	O 	0.09791	0.58303	0.83343	-0.389
Mof_O 	O 	0.16657	0.51437	0.90209	-0.389
Mof_O 	O 	0.7547	0.4864	0.58278	-0.402
Mof_O 	O 	0.83343	0.48563	0.58303	-0.389
Mof_O 	O 	0.58303	0.09791	0.48563	-0.389
Mof_O 	O 	0.51437	0.16657	0.41697	-0.389
Mof_O 	O 	0.7547	0.17612	0.58278	-0.402
Mof_O 	O 	0.20957	0.20957	0.54993	-0.364
Mof_O 	O 	0.17612	0.58278	0.7547	-0.402
Mof_O 	O 	0.90209	0.41697	0.16657	-0.389
Mof_O 	O 	0.5136	0.2453	0.41722	-0.402
Mof_O 	O 	0.20957	0.20957	0.03093	-0.363
Mof_O 	O 	0.16657	0.90209	0.41697	-0.389
Mof_O 	O 	0.51437	0.16657	0.90209	-0.389
Mof_O 	O 	0.2453	0.82388	0.41722	-0.402
Mof_O 	O 	0.90209	0.41697	0.51437	-0.389
Mof_O 	O 	0.20957	0.03093	0.54993	-0.364
Mof_O 	O 	0.48563	0.83343	0.58303	-0.389
Mof_O 	O 	0.83343	0.48563	0.09791	-0.389
Mof_O 	O 	0.58303	0.09791	0.83343	-0.389
Mof_O 	O 	0.09791	0.48563	0.58303	-0.389
Mof_O 	O 	0.17612	0.58278	0.4864	-0.402
Mof_O 	O 	0.79043	0.79043	0.45007	-0.364
_end
