data_functionalizedCrystal
_audit_creation_method	'EQeq! by Chris Wilmer'
_symmetry_space_group_name_H-M	'P1'
_symmetry_Int_Tables_number	1
_symmetry_cell_setting	triclinic
loop_
_symmetry_equiv_pos_as_xyz
  x,y,z
_cell_length_a	12.8597
_cell_length_b	15.1207
_cell_length_c	23.516
_cell_angle_alpha	90
_cell_angle_beta	90
_cell_angle_gamma	90
loop_
_atom_site_label
_atom_site_type_symbol
_atom_site_fract_x
_atom_site_fract_y
_atom_site_fract_z
_atom_site_charge
Mof_Cd	Cd	0.3673	0.36013	0.38505	0.4
Mof_Cd	Cd	0.2525	0.23267	0.50014	0.511
Mof_Cd	Cd	0.8673	0.63987	0.61495	0.398
Mof_Cd	Cd	0.7525	0.76733	0.49986	0.51
Mof_Cd	Cd	0.3673	0.13987	0.88505	0.399
Mof_Cd	Cd	0.2525	0.26733	0.00014	0.51
Mof_Cd	Cd	0.8673	0.86013	0.11495	0.398
Mof_Cd	Cd	0.7525	0.73267	0.99986	0.51
Mof_H 	H 	0.0348	0.4998	0.4976	0.068
Mof_H 	H 	0.9438	0.6317	0.3615	0.092
Mof_H 	H 	0.1244	0.4164	0.3391	0.081
Mof_H 	H 	0.9536	0.6074	0.1955	0.088
Mof_H 	H 	0.9996	0.5082	0.0356	0.064
Mof_H 	H 	0.1174	0.3871	0.1688	0.089
Mof_H 	H 	0.5348	0.5002	0.5024	0.069
Mof_H 	H 	0.4438	0.3683	0.6385	0.091
Mof_H 	H 	0.6244	0.5836	0.6609	0.08
Mof_H 	H 	0.4536	0.3926	0.8045	0.088
Mof_H 	H 	0.4996	0.4918	0.9644	0.07
Mof_H 	H 	0.6174	0.6129	0.8312	0.089
Mof_H 	H 	0.0348	0.0002	0.9976	0.069
Mof_H 	H 	0.9438	0.8683	0.8615	0.092
Mof_H 	H 	0.1244	0.0836	0.8391	0.081
Mof_H 	H 	0.9536	0.8926	0.6955	0.088
Mof_H 	H 	0.9996	0.9918	0.5356	0.063
Mof_H 	H 	0.1174	0.1129	0.6688	0.089
Mof_H 	H 	0.5348	0.9998	0.0024	0.07
Mof_H 	H 	0.4438	0.1317	0.1385	0.091
Mof_H 	H 	0.6244	0.9164	0.1609	0.08
Mof_H 	H 	0.4536	0.1074	0.3045	0.088
Mof_H 	H 	0.4996	0.0082	0.4644	0.07
Mof_H 	H 	0.6174	0.8871	0.3312	0.089
Mof_C 	C 	0.1469	0.3712	0.4499	0.285
Mof_C 	C 	0.0908	0.4437	0.4227	-0.038
Mof_C 	C 	0.034	0.5062	0.4583	-0.014
Mof_C 	C 	0.9812	0.5718	0.4348	-0.036
Mof_C 	C 	0.9214	0.6337	0.4719	0.318
Mof_C 	C 	0.9783	0.5831	0.3768	-0.088
Mof_C 	C 	0.0268	0.5223	0.3404	0.112
Mof_C 	C 	0.0873	0.4541	0.3628	-0.084
Mof_C 	C 	0.0379	0.4946	0.1925	0.113
Mof_C 	C 	0.9816	0.5658	0.1708	-0.078
Mof_C 	C 	0.9663	0.5756	0.1104	-0.049
Mof_C 	C 	0.9065	0.6492	0.0866	0.336
Mof_C 	C 	0.011	0.5059	0.0746	0.003
Mof_C 	C 	0.0677	0.439	0.0956	-0.041
Mof_C 	C 	0.128	0.3746	0.0573	0.366
Mof_C 	C 	0.0793	0.4341	0.1541	-0.08
Mof_C 	C 	0.6469	0.6288	0.5501	0.285
Mof_C 	C 	0.5908	0.5563	0.5773	-0.037
Mof_C 	C 	0.534	0.4938	0.5417	-0.02
Mof_C 	C 	0.4812	0.4282	0.5652	-0.032
Mof_C 	C 	0.4214	0.3663	0.5281	0.317
Mof_C 	C 	0.4783	0.4169	0.6232	-0.085
Mof_C 	C 	0.5268	0.4777	0.6596	0.109
Mof_C 	C 	0.5873	0.5459	0.6372	-0.083
Mof_C 	C 	0.5379	0.5054	0.8075	0.111
Mof_C 	C 	0.4816	0.4342	0.8292	-0.075
Mof_C 	C 	0.4663	0.4244	0.8896	-0.043
Mof_C 	C 	0.4065	0.3508	0.9134	0.334
Mof_C 	C 	0.511	0.4941	0.9254	-0.009
Mof_C 	C 	0.5677	0.561	0.9044	-0.037
Mof_C 	C 	0.628	0.6254	0.9427	0.364
Mof_C 	C 	0.5793	0.5659	0.8459	-0.082
Mof_C 	C 	0.1469	0.1288	0.9499	0.286
Mof_C 	C 	0.0908	0.0563	0.9227	-0.038
Mof_C 	C 	0.034	0.9938	0.9583	-0.015
Mof_C 	C 	0.9812	0.9282	0.9348	-0.036
Mof_C 	C 	0.9214	0.8663	0.9719	0.317
Mof_C 	C 	0.9783	0.9169	0.8768	-0.088
Mof_C 	C 	0.0268	0.9777	0.8404	0.112
Mof_C 	C 	0.0873	0.0459	0.8628	-0.084
Mof_C 	C 	0.0379	0.0054	0.6925	0.113
Mof_C 	C 	0.9816	0.9342	0.6708	-0.078
Mof_C 	C 	0.9663	0.9244	0.6104	-0.049
Mof_C 	C 	0.9065	0.8508	0.5866	0.336
Mof_C 	C 	0.011	0.9941	0.5746	0.004
Mof_C 	C 	0.0677	0.061	0.5956	-0.041
Mof_C 	C 	0.128	0.1254	0.5573	0.366
Mof_C 	C 	0.0793	0.0659	0.6541	-0.08
Mof_C 	C 	0.6469	0.8712	0.0501	0.284
Mof_C 	C 	0.5908	0.9437	0.0773	-0.036
Mof_C 	C 	0.534	0.0062	0.0417	-0.021
Mof_C 	C 	0.4812	0.0718	0.0652	-0.031
Mof_C 	C 	0.4214	0.1337	0.0281	0.316
Mof_C 	C 	0.4783	0.0831	0.1232	-0.085
Mof_C 	C 	0.5268	0.0223	0.1596	0.109
Mof_C 	C 	0.5873	0.9541	0.1372	-0.083
Mof_C 	C 	0.5379	0.9946	0.3075	0.111
Mof_C 	C 	0.4816	0.0658	0.3292	-0.076
Mof_C 	C 	0.4663	0.0756	0.3896	-0.043
Mof_C 	C 	0.4065	0.1492	0.4134	0.334
Mof_C 	C 	0.511	0.0059	0.4254	-0.009
Mof_C 	C 	0.5677	0.939	0.4044	-0.036
Mof_C 	C 	0.628	0.8746	0.4427	0.364
Mof_C 	C 	0.5793	0.9341	0.3459	-0.082
Mof_N 	N 	0.0151	0.5368	0.2809	-0.084
Mof_N 	N 	0.0535	0.4819	0.2503	-0.087
Mof_N 	N 	0.5151	0.4632	0.7191	-0.084
Mof_N 	N 	0.5535	0.5181	0.7497	-0.087
Mof_N 	N 	0.0151	0.9632	0.7809	-0.084
Mof_N 	N 	0.0535	0.0181	0.7503	-0.087
Mof_N 	N 	0.5151	0.0368	0.2191	-0.084
Mof_N 	N 	0.5535	0.9819	0.2497	-0.087
Mof_O 	O 	0.1379	0.3574	0.5016	-0.252
Mof_O 	O 	0.2067	0.322	0.4191	-0.286
Mof_O 	O 	0.9161	0.615	0.523	-0.29
Mof_O 	O 	0.8732	0.697	0.4498	-0.267
Mof_O 	O 	0.9085	0.716	0.1168	-0.293
Mof_O 	O 	0.8625	0.6404	0.0398	-0.282
Mof_O 	O 	0.1913	0.3291	0.0786	-0.296
Mof_O 	O 	0.1056	0.3749	0.0085	-0.28
Mof_O 	O 	0.6379	0.6426	0.4984	-0.252
Mof_O 	O 	0.7067	0.678	0.5809	-0.286
Mof_O 	O 	0.4161	0.385	0.477	-0.289
Mof_O 	O 	0.3732	0.303	0.5502	-0.266
Mof_O 	O 	0.4085	0.284	0.8832	-0.292
Mof_O 	O 	0.3625	0.3596	0.9602	-0.28
Mof_O 	O 	0.6913	0.6709	0.9214	-0.296
Mof_O 	O 	0.6056	0.6251	0.9915	-0.28
Mof_O 	O 	0.1379	0.1426	0.0016	-0.252
Mof_O 	O 	0.2067	0.178	0.9191	-0.286
Mof_O 	O 	0.9161	0.885	0.023	-0.29
Mof_O 	O 	0.8732	0.803	0.9498	-0.267
Mof_O 	O 	0.9085	0.784	0.6168	-0.293
Mof_O 	O 	0.8625	0.8596	0.5398	-0.282
Mof_O 	O 	0.1913	0.1709	0.5786	-0.296
Mof_O 	O 	0.1056	0.1251	0.5085	-0.279
Mof_O 	O 	0.6379	0.8574	0.9984	-0.252
Mof_O 	O 	0.7067	0.822	0.0809	-0.286
Mof_O 	O 	0.4161	0.115	0.977	-0.289
Mof_O 	O 	0.3732	0.197	0.0502	-0.266
Mof_O 	O 	0.4085	0.216	0.3832	-0.292
Mof_O 	O 	0.3625	0.1404	0.4602	-0.281
Mof_O 	O 	0.6913	0.8291	0.4214	-0.296
Mof_O 	O 	0.6056	0.8749	0.4915	-0.28
_end
