data_functionalizedCrystal
_audit_creation_method	'EQeq! by Chris Wilmer'
_symmetry_space_group_name_H-M	'P1'
_symmetry_Int_Tables_number	1
_symmetry_cell_setting	triclinic
loop_
_symmetry_equiv_pos_as_xyz
  x,y,z
_cell_length_a	7.16
_cell_length_b	34.398
_cell_length_c	19.626
_cell_angle_alpha	90
_cell_angle_beta	90
_cell_angle_gamma	90
loop_
_atom_site_label
_atom_site_type_symbol
_atom_site_fract_x
_atom_site_fract_y
_atom_site_fract_z
_atom_site_charge
Mof_C 	C 	0.6615	0.6144	0.7051	-0.132
Mof_C 	C 	0.6611	0.6407	0.7576	0.024
Mof_N 	N 	0.6545	0.69478	0.8728	-0.085
Mof_N 	N 	0.5932	0.71766	0.92308	-0.081
Mof_C 	C 	0.103	0.471	0.457	-0.18
Mof_H 	H 	0.7756	0.6042	0.6886	0.078
Mof_H 	H 	0.7754	0.6496	0.7763	0.038
Mof_H 	H 	0.1502	0.5226	0.4039	-0.004
Mof_H 	H 	0.1569	0.4789	0.4023	0.016
Mof_H 	H 	0.1513	0.4465	0.4589	-0.006
Mof_H 	H 	0.8535	0.4443	0.5399	0.02
Mof_C 	C 	0.1615	0.1144	0.7051	-0.131
Mof_C 	C 	0.1611	0.1407	0.7576	0.022
Mof_N 	N 	0.1545	0.19478	0.8728	-0.086
Mof_N 	N 	0.0932	0.21766	0.92308	-0.084
Mof_C 	C 	0.603	0.971	0.457	-0.193
Mof_H 	H 	0.2756	0.1042	0.6886	0.076
Mof_H 	H 	0.2754	0.1496	0.7763	0.037
Mof_H 	H 	0.6502	0.0226	0.4039	-0.004
Mof_H 	H 	0.6569	0.9789	0.4023	0.017
Mof_H 	H 	0.6513	0.9465	0.4589	-0.007
Mof_H 	H 	0.3535	0.9443	0.5399	0.02
Mof_C 	C 	0.3385	0.3856	0.7051	-0.133
Mof_C 	C 	0.3389	0.3593	0.7576	0.023
Mof_N 	N 	0.3455	0.30522	0.8728	-0.087
Mof_N 	N 	0.4068	0.28234	0.92308	-0.083
Mof_C 	C 	0.897	0.529	0.457	-0.18
Mof_H 	H 	0.2244	0.3958	0.6886	0.076
Mof_H 	H 	0.2246	0.3504	0.7763	0.037
Mof_H 	H 	0.8498	0.4774	0.4039	-0.004
Mof_H 	H 	0.8431	0.5211	0.4023	0.016
Mof_H 	H 	0.8487	0.5535	0.4589	-0.006
Mof_H 	H 	0.1465	0.5557	0.5399	0.02
Mof_C 	C 	0.8385	0.8856	0.7051	-0.126
Mof_C 	C 	0.8389	0.8593	0.7576	0.025
Mof_N 	N 	0.8455	0.80522	0.8728	-0.085
Mof_N 	N 	0.9068	0.78234	0.92308	-0.081
Mof_C 	C 	0.397	0.029	0.457	-0.213
Mof_H 	H 	0.7244	0.8958	0.6886	0.075
Mof_H 	H 	0.7246	0.8504	0.7763	0.037
Mof_H 	H 	0.3498	0.9774	0.4039	-0.004
Mof_H 	H 	0.3431	0.0211	0.4023	0.019
Mof_H 	H 	0.3487	0.0535	0.4589	-0.01
Mof_H 	H 	0.6465	0.0557	0.5399	0.02
Mof_C 	C 	0.3385	0.6144	0.2949	-0.137
Mof_C 	C 	0.3389	0.6407	0.2424	0.023
Mof_N 	N 	0.3455	0.69478	0.1272	-0.093
Mof_N 	N 	0.4068	0.71766	0.07692	-0.099
Mof_C 	C 	0.897	0.471	0.543	-0.18
Mof_H 	H 	0.2244	0.6042	0.3114	0.076
Mof_H 	H 	0.2246	0.6496	0.2237	0.032
Mof_H 	H 	0.8498	0.5226	0.5961	-0.003
Mof_H 	H 	0.8431	0.4789	0.5977	0.016
Mof_H 	H 	0.8487	0.4465	0.5411	-0.006
Mof_H 	H 	0.1465	0.4443	0.4601	0.02
Mof_C 	C 	0.8385	0.1144	0.2949	-0.131
Mof_C 	C 	0.8389	0.1407	0.2424	0.025
Mof_N 	N 	0.8455	0.19478	0.1272	-0.092
Mof_N 	N 	0.9068	0.21766	0.07692	-0.098
Mof_C 	C 	0.397	0.971	0.543	-0.193
Mof_H 	H 	0.7244	0.1042	0.3114	0.075
Mof_H 	H 	0.7246	0.1496	0.2237	0.032
Mof_H 	H 	0.3498	0.0226	0.5961	-0.004
Mof_H 	H 	0.3431	0.9789	0.5977	0.017
Mof_H 	H 	0.3487	0.9465	0.5411	-0.007
Mof_H 	H 	0.6465	0.9443	0.4601	0.02
Mof_C 	C 	0.6615	0.3856	0.2949	-0.137
Mof_C 	C 	0.6611	0.3593	0.2424	0.023
Mof_N 	N 	0.6545	0.30522	0.1272	-0.093
Mof_N 	N 	0.5932	0.28234	0.07692	-0.099
Mof_C 	C 	0.103	0.529	0.543	-0.181
Mof_H 	H 	0.7756	0.3958	0.3114	0.076
Mof_H 	H 	0.7754	0.3504	0.2237	0.033
Mof_H 	H 	0.1502	0.4774	0.5961	-0.003
Mof_H 	H 	0.1569	0.5211	0.5977	0.016
Mof_H 	H 	0.1513	0.5535	0.5411	-0.006
Mof_H 	H 	0.8535	0.5557	0.4601	0.02
Mof_C 	C 	0.1615	0.8856	0.2949	-0.134
Mof_C 	C 	0.1611	0.8593	0.2424	0.022
Mof_N 	N 	0.1545	0.80522	0.1272	-0.093
Mof_N 	N 	0.0932	0.78234	0.07692	-0.1
Mof_C 	C 	0.603	0.029	0.543	-0.213
Mof_H 	H 	0.2756	0.8958	0.3114	0.075
Mof_H 	H 	0.2754	0.8504	0.2237	0.033
Mof_H 	H 	0.6502	0.9774	0.5961	-0.003
Mof_H 	H 	0.6569	0.0211	0.5977	0.019
Mof_H 	H 	0.6513	0.0535	0.5411	-0.01
Mof_H 	H 	0.3535	0.0557	0.4601	0.02
Mof_C 	C 	0.3385	0.3856	0.2949	-0.137
Mof_C 	C 	0.3389	0.3593	0.2424	0.023
Mof_N 	N 	0.3455	0.30522	0.1272	-0.093
Mof_N 	N 	0.4068	0.28234	0.07692	-0.099
Mof_C 	C 	0.897	0.529	0.543	-0.18
Mof_H 	H 	0.2244	0.3958	0.3114	0.076
Mof_H 	H 	0.2246	0.3504	0.2237	0.032
Mof_H 	H 	0.8498	0.4774	0.5961	-0.003
Mof_H 	H 	0.8431	0.5211	0.5977	0.016
Mof_H 	H 	0.8487	0.5535	0.5411	-0.006
Mof_H 	H 	0.1465	0.5557	0.4601	0.02
Mof_C 	C 	0.8385	0.8856	0.2949	-0.13
Mof_C 	C 	0.8389	0.8593	0.2424	0.025
Mof_N 	N 	0.8455	0.80522	0.1272	-0.091
Mof_N 	N 	0.9068	0.78234	0.07692	-0.098
Mof_C 	C 	0.397	0.029	0.543	-0.213
Mof_H 	H 	0.7244	0.8958	0.3114	0.075
Mof_H 	H 	0.7246	0.8504	0.2237	0.033
Mof_H 	H 	0.3498	0.9774	0.5961	-0.004
Mof_H 	H 	0.3431	0.0211	0.5977	0.019
Mof_H 	H 	0.3487	0.0535	0.5411	-0.01
Mof_H 	H 	0.6465	0.0557	0.4601	0.02
Mof_C 	C 	0.6615	0.6144	0.2949	-0.137
Mof_C 	C 	0.6611	0.6407	0.2424	0.023
Mof_N 	N 	0.6545	0.69478	0.1272	-0.093
Mof_N 	N 	0.5932	0.71766	0.07692	-0.099
Mof_C 	C 	0.103	0.471	0.543	-0.181
Mof_H 	H 	0.7756	0.6042	0.3114	0.076
Mof_H 	H 	0.7754	0.6496	0.2237	0.033
Mof_H 	H 	0.1502	0.5226	0.5961	-0.003
Mof_H 	H 	0.1569	0.4789	0.5977	0.016
Mof_H 	H 	0.1513	0.4465	0.5411	-0.006
Mof_H 	H 	0.8535	0.4443	0.4601	0.02
Mof_C 	C 	0.1615	0.1144	0.2949	-0.135
Mof_C 	C 	0.1611	0.1407	0.2424	0.022
Mof_N 	N 	0.1545	0.19478	0.1272	-0.093
Mof_N 	N 	0.0932	0.21766	0.07692	-0.1
Mof_C 	C 	0.603	0.971	0.543	-0.193
Mof_H 	H 	0.2756	0.1042	0.3114	0.075
Mof_H 	H 	0.2754	0.1496	0.2237	0.033
Mof_H 	H 	0.6502	0.0226	0.5961	-0.004
Mof_H 	H 	0.6569	0.9789	0.5977	0.017
Mof_H 	H 	0.6513	0.9465	0.5411	-0.007
Mof_H 	H 	0.3535	0.9443	0.4601	0.02
Mof_C 	C 	0.6615	0.3856	0.7051	-0.133
Mof_C 	C 	0.6611	0.3593	0.7576	0.023
Mof_N 	N 	0.6545	0.30522	0.8728	-0.086
Mof_N 	N 	0.5932	0.28234	0.92308	-0.082
Mof_C 	C 	0.103	0.529	0.457	-0.181
Mof_H 	H 	0.7756	0.3958	0.6886	0.077
Mof_H 	H 	0.7754	0.3504	0.7763	0.037
Mof_H 	H 	0.1502	0.4774	0.4039	-0.004
Mof_H 	H 	0.1569	0.5211	0.4023	0.016
Mof_H 	H 	0.1513	0.5535	0.4589	-0.006
Mof_H 	H 	0.8535	0.5557	0.5399	0.02
Mof_C 	C 	0.1615	0.8856	0.7051	-0.13
Mof_C 	C 	0.1611	0.8593	0.7576	0.022
Mof_N 	N 	0.1545	0.80522	0.8728	-0.086
Mof_N 	N 	0.0932	0.78234	0.92308	-0.084
Mof_C 	C 	0.603	0.029	0.457	-0.213
Mof_H 	H 	0.2756	0.8958	0.6886	0.076
Mof_H 	H 	0.2754	0.8504	0.7763	0.038
Mof_H 	H 	0.6502	0.9774	0.4039	-0.004
Mof_H 	H 	0.6569	0.0211	0.4023	0.019
Mof_H 	H 	0.6513	0.0535	0.4589	-0.01
Mof_H 	H 	0.3535	0.0557	0.5399	0.02
Mof_C 	C 	0.3385	0.6144	0.7051	-0.133
Mof_C 	C 	0.3389	0.6407	0.7576	0.023
Mof_N 	N 	0.3455	0.69478	0.8728	-0.087
Mof_N 	N 	0.4068	0.71766	0.92308	-0.083
Mof_C 	C 	0.897	0.471	0.457	-0.18
Mof_H 	H 	0.2244	0.6042	0.6886	0.076
Mof_H 	H 	0.2246	0.6496	0.7763	0.037
Mof_H 	H 	0.8498	0.5226	0.4039	-0.004
Mof_H 	H 	0.8431	0.4789	0.4023	0.016
Mof_H 	H 	0.8487	0.4465	0.4589	-0.006
Mof_H 	H 	0.1465	0.4443	0.5399	0.02
Mof_C 	C 	0.8385	0.1144	0.7051	-0.127
Mof_C 	C 	0.8389	0.1407	0.7576	0.025
Mof_N 	N 	0.8455	0.19478	0.8728	-0.085
Mof_N 	N 	0.9068	0.21766	0.92308	-0.081
Mof_C 	C 	0.397	0.971	0.457	-0.193
Mof_H 	H 	0.7244	0.1042	0.6886	0.075
Mof_H 	H 	0.7246	0.1496	0.7763	0.037
Mof_H 	H 	0.3498	0.0226	0.4039	-0.005
Mof_H 	H 	0.3431	0.9789	0.4023	0.017
Mof_H 	H 	0.3487	0.9465	0.4589	-0.008
Mof_H 	H 	0.6465	0.9443	0.5399	0.02
Mof_Fe	Fe	0.5	0.5	0.5	0.684
Mof_Fe	Fe	5.13867e-33	0	0.5	0.677
Mof_N 	N 	0.5	0.5	0.6027	-0.21
Mof_N 	N 	6.19415e-33	0	0.6027	-0.213
Mof_N 	N 	0.5	0.5	0.3973	-0.21
Mof_N 	N 	-6.36167e-33	-2.61121e-33	0.3973	-0.213
Mof_C 	C 	0.5	0.53205	0.6449	0.106
Mof_C 	C 	0.5	0.57031	0.6238	-0.13
Mof_C 	C 	0.5	0.58246	0.5563	0.103
Mof_C 	C 	0.5	0.62266	0.5338	-0.081
Mof_C 	C 	0.5	0.60101	0.6786	0.108
Mof_C 	C 	0.5	0.6543	0.7848	-0.049
Mof_C 	C 	0.5	0.6816	0.8425	0.135
Mof_C 	C 	0.5	0.51936	0.7151	-0.08
Mof_H 	H 	0.5	0.5359	0.7542	0.066
Mof_H 	H 	0.5	0.645	0.5624	0.061
Mof_C 	C 	-1.42619e-32	0.03205	0.6449	0.107
Mof_C 	C 	6.411e-33	0.07031	0.6238	-0.129
Mof_C 	C 	-4.72757e-33	0.08246	0.5563	0.102
Mof_C 	C 	-4.95881e-33	0.12266	0.5338	-0.082
Mof_C 	C 	6.9742e-33	0.10101	0.6786	0.102
Mof_C 	C 	8.06565e-33	0.1543	0.7848	-0.053
Mof_C 	C 	-1.22311e-32	0.1816	0.8425	0.132
Mof_C 	C 	7.34932e-33	0.01936	0.7151	-0.091
Mof_H 	H 	-3.40283e-32	0.0359	0.7542	0.068
Mof_H 	H 	5.77997e-33	0.145	0.5624	0.06
Mof_C 	C 	0.5	0.46795	0.6449	0.106
Mof_C 	C 	0.5	0.42969	0.6238	-0.13
Mof_C 	C 	0.5	0.41754	0.5563	0.103
Mof_C 	C 	0.5	0.37734	0.5338	-0.081
Mof_C 	C 	0.5	0.39899	0.6786	0.108
Mof_C 	C 	0.5	0.3457	0.7848	-0.049
Mof_C 	C 	0.5	0.3184	0.8425	0.135
Mof_C 	C 	0.5	0.48064	0.7151	-0.08
Mof_H 	H 	0.5	0.4641	0.7542	0.066
Mof_H 	H 	0.5	0.355	0.5624	0.061
Mof_C 	C 	-3.51516e-32	0.96795	0.6449	0.106
Mof_C 	C 	2.73007e-32	0.92969	0.6238	-0.128
Mof_C 	C 	-2.56173e-32	0.91754	0.5563	0.102
Mof_C 	C 	-4.95881e-33	0.87734	0.5338	-0.081
Mof_C 	C 	9.0533e-32	0.89899	0.6786	0.101
Mof_C 	C 	2.89554e-32	0.8457	0.7848	-0.052
Mof_C 	C 	-3.31208e-32	0.8184	0.8425	0.133
Mof_C 	C 	2.8239e-32	0.98064	0.7151	-0.07
Mof_H 	H 	7.75117e-33	0.9641	0.7542	0.063
Mof_H 	H 	5.77997e-33	0.855	0.5624	0.06
Mof_C 	C 	0.5	0.53205	0.3551	0.105
Mof_C 	C 	0.5	0.57031	0.3762	-0.131
Mof_C 	C 	0.5	0.58246	0.4437	0.104
Mof_C 	C 	0.5	0.62266	0.4662	-0.081
Mof_C 	C 	0.5	0.60101	0.3214	0.109
Mof_C 	C 	0.5	0.6543	0.2152	-0.055
Mof_C 	C 	0.5	0.6816	0.1575	0.13
Mof_C 	C 	0.5	0.51936	0.2849	-0.082
Mof_H 	H 	0.5	0.5359	0.2458	0.06
Mof_H 	H 	0.5	0.645	0.4376	0.061
Mof_C 	C 	-6.79537e-33	0.03205	0.3551	0.107
Mof_C 	C 	3.86633e-33	0.07031	0.3762	-0.13
Mof_C 	C 	4.56005e-33	0.08246	0.4437	0.103
Mof_C 	C 	-1.60984e-32	0.12266	0.4662	-0.082
Mof_C 	C 	-7.14172e-33	0.10101	0.3214	0.103
Mof_C 	C 	1.26565e-32	0.1543	0.2152	-0.058
Mof_C 	C 	-8.82617e-33	0.1816	0.1575	0.128
Mof_C 	C 	2.92801e-33	0.01936	0.2849	-0.093
Mof_H 	H 	-7.91869e-33	0.0359	0.2458	0.062
Mof_H 	H 	-5.94749e-33	0.145	0.4376	0.06
Mof_C 	C 	0.5	0.46795	0.3551	0.105
Mof_C 	C 	0.5	0.42969	0.3762	-0.131
Mof_C 	C 	0.5	0.41754	0.4437	0.104
Mof_C 	C 	0.5	0.37734	0.4662	-0.081
Mof_C 	C 	0.5	0.39899	0.3214	0.109
Mof_C 	C 	0.5	0.3457	0.2152	-0.055
Mof_C 	C 	0.5	0.3184	0.1575	0.13
Mof_C 	C 	0.5	0.48064	0.2849	-0.082
Mof_H 	H 	0.5	0.4641	0.2458	0.06
Mof_H 	H 	0.5	0.355	0.4376	0.061
Mof_C 	C 	2.45392e-32	0.96795	0.3551	0.106
Mof_C 	C 	2.4756e-32	0.92969	0.3762	-0.129
Mof_C 	C 	2.54498e-32	0.91754	0.4437	0.102
Mof_C 	C 	-1.60984e-32	0.87734	0.4662	-0.082
Mof_C 	C 	3.30314e-33	0.89899	0.3214	0.103
Mof_C 	C 	7.43411e-33	0.8457	0.2152	-0.057
Mof_C 	C 	2.25084e-32	0.8184	0.1575	0.128
Mof_C 	C 	2.38177e-32	0.98064	0.2849	-0.072
Mof_H 	H 	3.38607e-32	0.9641	0.2458	0.057
Mof_H 	H 	-5.94749e-33	0.855	0.4376	0.06
Mof_N 	N 	0.5	0.55841	0.5	-0.21
Mof_N 	N 	5.13867e-33	0.05841	0.5	-0.21
Mof_N 	N 	0.5	0.44159	0.5	-0.21
Mof_N 	N 	2.60284e-32	0.94159	0.5	-0.209
Mof_Fe	Fe	0.75	0.75	-0	0.666
Mof_Fe	Fe	0.25	0.25	-0	0.665
Mof_Fe	Fe	0.25	0.75	-0	0.665
Mof_Fe	Fe	0.75	0.25	-0	0.666
Mof_O 	O 	4.17794e-32	0.7131	-0	-0.291
Mof_O 	O 	0.5	0.2131	-0	-0.29
Mof_O 	O 	1.04449e-32	0.2869	-0	-0.291
Mof_O 	O 	0.5	0.7869	-0	-0.29
Mof_N 	N 	0.1834	0.5	0.5	-0.114
Mof_N 	N 	0.6834	0	0.5	-0.111
Mof_N 	N 	0.8166	0.5	0.5	-0.114
Mof_N 	N 	0.3166	0	0.5	-0.112
Mof_C 	C 	0.893	0.4574	0.5	0.205
Mof_C 	C 	0.393	0.9574	0.5	0.226
Mof_C 	C 	0.107	0.5426	0.5	0.204
Mof_C 	C 	0.607	0.0426	0.5	0.253
Mof_C 	C 	0.107	0.4574	0.5	0.204
Mof_C 	C 	0.607	0.9574	0.5	0.226
Mof_C 	C 	0.893	0.5426	0.5	0.205
Mof_C 	C 	0.393	0.0426	0.5	0.253
Mof_C 	C 	0.108	0.5	0.4273	0.145
Mof_C 	C 	0.608	0	0.4273	0.161
Mof_C 	C 	0.892	0.5	0.4273	0.145
Mof_C 	C 	0.392	0	0.4273	0.161
Mof_C 	C 	0.892	0.5	0.5727	0.145
Mof_C 	C 	0.392	-2.61121e-33	0.5727	0.161
Mof_C 	C 	0.108	0.5	0.5727	0.145
Mof_C 	C 	0.608	-2.61121e-33	0.5727	0.161
_end
