data_functionalizedCrystal
_audit_creation_method	'EQeq! by Chris Wilmer'
_symmetry_space_group_name_H-M	'P1'
_symmetry_Int_Tables_number	1
_symmetry_cell_setting	triclinic
loop_
_symmetry_equiv_pos_as_xyz
  x,y,z
_cell_length_a	13.9585
_cell_length_b	13.9585
_cell_length_c	20.0529
_cell_angle_alpha	90
_cell_angle_beta	90
_cell_angle_gamma	90
loop_
_atom_site_label
_atom_site_type_symbol
_atom_site_fract_x
_atom_site_fract_y
_atom_site_fract_z
_atom_site_charge
Mof_N 	N 	0.1766	0.8919	0.9319	-0.083
Mof_C 	C 	0.2301	0.8788	0.8791	-0.144
Mof_H 	H 	0.2828	0.9164	0.8683	0.149
Mof_C 	C 	0.2745	0.8446	0.8083	0.328
Mof_H 	H 	0.3023	0.899	0.8268	-0.127
Mof_O 	O 	0.2021	0.9097	0.9269	-0.312
Mof_N 	N 	0.6766	0.3919	0.4319	-0.125
Mof_C 	C 	0.7301	0.3788	0.3791	-0.16
Mof_H 	H 	0.7828	0.4164	0.3683	0.142
Mof_C 	C 	0.7745	0.3446	0.3083	0.343
Mof_H 	H 	0.8023	0.399	0.3268	-0.138
Mof_O 	O 	0.7021	0.4097	0.4269	-0.329
Mof_N 	N 	0.8234	0.1081	0.9319	-0.12
Mof_C 	C 	0.7699	0.1212	0.8791	-0.156
Mof_H 	H 	0.7172	0.0836	0.8683	0.137
Mof_C 	C 	0.7255	0.1554	0.8083	0.328
Mof_H 	H 	0.6977	0.101	0.8268	-0.135
Mof_O 	O 	0.7979	0.0903	0.9269	-0.284
Mof_N 	N 	0.3234	0.6081	0.4319	-0.131
Mof_C 	C 	0.2699	0.6212	0.3791	-0.161
Mof_H 	H 	0.2172	0.5836	0.3683	0.137
Mof_C 	C 	0.2255	0.6554	0.3083	0.341
Mof_H 	H 	0.1977	0.601	0.3268	-0.143
Mof_O 	O 	0.2979	0.5903	0.4269	-0.324
Mof_N 	N 	0.1081	0.1766	0.9319	-0.109
Mof_C 	C 	0.1212	0.2301	0.8791	-0.161
Mof_H 	H 	0.0836	0.2828	0.8683	0.14
Mof_C 	C 	0.1554	0.2745	0.8083	0.33
Mof_H 	H 	0.101	0.3023	0.8268	-0.138
Mof_O 	O 	0.0903	0.2021	0.9269	-0.304
Mof_N 	N 	0.6081	0.6766	0.4319	-0.126
Mof_C 	C 	0.6212	0.7301	0.3791	-0.156
Mof_H 	H 	0.5836	0.7828	0.3683	0.141
Mof_C 	C 	0.6554	0.7745	0.3083	0.342
Mof_H 	H 	0.601	0.8023	0.3268	-0.137
Mof_O 	O 	0.5903	0.7021	0.4269	-0.326
Mof_N 	N 	0.8919	0.8234	0.9319	-0.092
Mof_C 	C 	0.8788	0.7699	0.8791	-0.137
Mof_H 	H 	0.9164	0.7172	0.8683	0.147
Mof_C 	C 	0.8446	0.7255	0.8083	0.327
Mof_H 	H 	0.899	0.6977	0.8268	-0.122
Mof_O 	O 	0.9097	0.7979	0.9269	-0.29
Mof_N 	N 	0.3919	0.3234	0.4319	-0.13
Mof_C 	C 	0.3788	0.2699	0.3791	-0.165
Mof_H 	H 	0.4164	0.2172	0.3683	0.138
Mof_C 	C 	0.3446	0.2255	0.3083	0.341
Mof_H 	H 	0.399	0.1977	0.3268	-0.144
Mof_O 	O 	0.4097	0.2979	0.4269	-0.327
Mof_N 	N 	0.8234	0.8919	0.0681	-0.124
Mof_C 	C 	0.7699	0.8788	0.1209	-0.156
Mof_H 	H 	0.7172	0.9164	0.1317	0.14
Mof_C 	C 	0.7255	0.8446	0.1917	0.343
Mof_H 	H 	0.6977	0.899	0.1732	-0.135
Mof_O 	O 	0.7979	0.9097	0.0731	-0.322
Mof_N 	N 	0.3234	0.3919	0.5681	-0.129
Mof_C 	C 	0.2699	0.3788	0.6209	-0.165
Mof_H 	H 	0.2172	0.4164	0.6317	0.138
Mof_C 	C 	0.2255	0.3446	0.6917	0.336
Mof_H 	H 	0.1977	0.399	0.6732	-0.139
Mof_O 	O 	0.2979	0.4097	0.5731	-0.326
Mof_N 	N 	0.1766	0.1081	0.0681	-0.144
Mof_C 	C 	0.2301	0.1212	0.1209	-0.182
Mof_H 	H 	0.2828	0.0836	0.1317	0.133
Mof_C 	C 	0.2745	0.1554	0.1917	0.348
Mof_H 	H 	0.3023	0.101	0.1732	-0.152
Mof_O 	O 	0.2021	0.0903	0.0731	-0.338
Mof_N 	N 	0.6766	0.6081	0.5681	-0.125
Mof_C 	C 	0.7301	0.6212	0.6209	-0.156
Mof_H 	H 	0.7828	0.5836	0.6317	0.141
Mof_C 	C 	0.7745	0.6554	0.6917	0.337
Mof_H 	H 	0.8023	0.601	0.6732	-0.133
Mof_O 	O 	0.7021	0.5903	0.5731	-0.325
Mof_N 	N 	0.8919	0.1766	0.0681	-0.114
Mof_C 	C 	0.8788	0.2301	0.1209	-0.163
Mof_H 	H 	0.9164	0.2828	0.1317	0.144
Mof_C 	C 	0.8446	0.2745	0.1917	0.346
Mof_H 	H 	0.899	0.3023	0.1732	-0.138
Mof_O 	O 	0.9097	0.2021	0.0731	-0.344
Mof_N 	N 	0.3919	0.6766	0.5681	-0.124
Mof_C 	C 	0.3788	0.7301	0.6209	-0.16
Mof_H 	H 	0.4164	0.7828	0.6317	0.142
Mof_C 	C 	0.3446	0.7745	0.6917	0.338
Mof_H 	H 	0.399	0.8023	0.6732	-0.134
Mof_O 	O 	0.4097	0.7021	0.5731	-0.328
Mof_N 	N 	0.1081	0.8234	0.0681	-0.155
Mof_C 	C 	0.1212	0.7699	0.1209	-0.176
Mof_H 	H 	0.0836	0.7172	0.1317	0.13
Mof_C 	C 	0.1554	0.7255	0.1917	0.345
Mof_H 	H 	0.101	0.6977	0.1732	-0.149
Mof_O 	O 	0.0903	0.7979	0.0731	-0.316
Mof_N 	N 	0.6081	0.3234	0.5681	-0.131
Mof_C 	C 	0.6212	0.2699	0.6209	-0.162
Mof_H 	H 	0.5836	0.2172	0.6317	0.137
Mof_C 	C 	0.6554	0.2255	0.6917	0.336
Mof_H 	H 	0.601	0.1977	0.6732	-0.138
Mof_O 	O 	0.5903	0.2979	0.5731	-0.323
Mof_N 	N 	0.8234	0.1081	0.0681	-0.155
Mof_C 	C 	0.7699	0.1212	0.1209	-0.176
Mof_H 	H 	0.7172	0.0836	0.1317	0.13
Mof_C 	C 	0.7255	0.1554	0.1917	0.345
Mof_H 	H 	0.6977	0.101	0.1732	-0.149
Mof_O 	O 	0.7979	0.0903	0.0731	-0.316
Mof_N 	N 	0.3234	0.6081	0.5681	-0.131
Mof_C 	C 	0.2699	0.6212	0.6209	-0.162
Mof_H 	H 	0.2172	0.5836	0.6317	0.137
Mof_C 	C 	0.2255	0.6554	0.6917	0.336
Mof_H 	H 	0.1977	0.601	0.6732	-0.138
Mof_O 	O 	0.2979	0.5903	0.5731	-0.323
Mof_N 	N 	0.1766	0.8919	0.0681	-0.114
Mof_C 	C 	0.2301	0.8788	0.1209	-0.163
Mof_H 	H 	0.2828	0.9164	0.1317	0.144
Mof_C 	C 	0.2745	0.8446	0.1917	0.346
Mof_H 	H 	0.3023	0.899	0.1732	-0.138
Mof_O 	O 	0.2021	0.9097	0.0731	-0.344
Mof_N 	N 	0.6766	0.3919	0.5681	-0.124
Mof_C 	C 	0.7301	0.3788	0.6209	-0.16
Mof_H 	H 	0.7828	0.4164	0.6317	0.142
Mof_C 	C 	0.7745	0.3446	0.6917	0.338
Mof_H 	H 	0.8023	0.399	0.6732	-0.134
Mof_O 	O 	0.7021	0.4097	0.5731	-0.328
Mof_N 	N 	0.8919	0.8234	0.0681	-0.124
Mof_C 	C 	0.8788	0.7699	0.1209	-0.156
Mof_H 	H 	0.9164	0.7172	0.1317	0.14
Mof_C 	C 	0.8446	0.7255	0.1917	0.343
Mof_H 	H 	0.899	0.6977	0.1732	-0.135
Mof_O 	O 	0.9097	0.7979	0.0731	-0.322
Mof_N 	N 	0.3919	0.3234	0.5681	-0.129
Mof_C 	C 	0.3788	0.2699	0.6209	-0.165
Mof_H 	H 	0.4164	0.2172	0.6317	0.138
Mof_C 	C 	0.3446	0.2255	0.6917	0.336
Mof_H 	H 	0.399	0.1977	0.6732	-0.139
Mof_O 	O 	0.4097	0.2979	0.5731	-0.326
Mof_N 	N 	0.1081	0.1766	0.0681	-0.144
Mof_C 	C 	0.1212	0.2301	0.1209	-0.182
Mof_H 	H 	0.0836	0.2828	0.1317	0.133
Mof_C 	C 	0.1554	0.2745	0.1917	0.348
Mof_H 	H 	0.101	0.3023	0.1732	-0.152
Mof_O 	O 	0.0903	0.2021	0.0731	-0.338
Mof_N 	N 	0.6081	0.6766	0.5681	-0.125
Mof_C 	C 	0.6212	0.7301	0.6209	-0.156
Mof_H 	H 	0.5836	0.7828	0.6317	0.141
Mof_C 	C 	0.6554	0.7745	0.6917	0.337
Mof_H 	H 	0.601	0.8023	0.6732	-0.133
Mof_O 	O 	0.5903	0.7021	0.5731	-0.325
Mof_N 	N 	0.1766	0.1081	0.9319	-0.109
Mof_C 	C 	0.2301	0.1212	0.8791	-0.161
Mof_H 	H 	0.2828	0.0836	0.8683	0.14
Mof_C 	C 	0.2745	0.1554	0.8083	0.33
Mof_H 	H 	0.3023	0.101	0.8268	-0.138
Mof_O 	O 	0.2021	0.0903	0.9269	-0.304
Mof_N 	N 	0.6766	0.6081	0.4319	-0.126
Mof_C 	C 	0.7301	0.6212	0.3791	-0.156
Mof_H 	H 	0.7828	0.5836	0.3683	0.141
Mof_C 	C 	0.7745	0.6554	0.3083	0.342
Mof_H 	H 	0.8023	0.601	0.3268	-0.137
Mof_O 	O 	0.7021	0.5903	0.4269	-0.326
Mof_N 	N 	0.8234	0.8919	0.9319	-0.092
Mof_C 	C 	0.7699	0.8788	0.8791	-0.137
Mof_H 	H 	0.7172	0.9164	0.8683	0.147
Mof_C 	C 	0.7255	0.8446	0.8083	0.327
Mof_H 	H 	0.6977	0.899	0.8268	-0.122
Mof_O 	O 	0.7979	0.9097	0.9269	-0.29
Mof_N 	N 	0.3234	0.3919	0.4319	-0.13
Mof_C 	C 	0.2699	0.3788	0.3791	-0.165
Mof_H 	H 	0.2172	0.4164	0.3683	0.138
Mof_C 	C 	0.2255	0.3446	0.3083	0.341
Mof_H 	H 	0.1977	0.399	0.3268	-0.144
Mof_O 	O 	0.2979	0.4097	0.4269	-0.327
Mof_N 	N 	0.1081	0.8234	0.9319	-0.12
Mof_C 	C 	0.1212	0.7699	0.8791	-0.156
Mof_H 	H 	0.0836	0.7172	0.8683	0.137
Mof_C 	C 	0.1554	0.7255	0.8083	0.328
Mof_H 	H 	0.101	0.6977	0.8268	-0.135
Mof_O 	O 	0.0903	0.7979	0.9269	-0.284
Mof_N 	N 	0.6081	0.3234	0.4319	-0.131
Mof_C 	C 	0.6212	0.2699	0.3791	-0.161
Mof_H 	H 	0.5836	0.2172	0.3683	0.137
Mof_C 	C 	0.6554	0.2255	0.3083	0.341
Mof_H 	H 	0.601	0.1977	0.3268	-0.143
Mof_O 	O 	0.5903	0.2979	0.4269	-0.324
Mof_N 	N 	0.8919	0.1766	0.9319	-0.082
Mof_C 	C 	0.8788	0.2301	0.8791	-0.143
Mof_H 	H 	0.9164	0.2828	0.8683	0.15
Mof_C 	C 	0.8446	0.2745	0.8083	0.329
Mof_H 	H 	0.899	0.3023	0.8268	-0.126
Mof_O 	O 	0.9097	0.2021	0.9269	-0.311
Mof_N 	N 	0.3919	0.6766	0.4319	-0.124
Mof_C 	C 	0.3788	0.7301	0.3791	-0.159
Mof_H 	H 	0.4164	0.7828	0.3683	0.142
Mof_C 	C 	0.3446	0.7745	0.3083	0.343
Mof_H 	H 	0.399	0.8023	0.3268	-0.138
Mof_O 	O 	0.4097	0.7021	0.4269	-0.329
Mof_Cu	Cu	0.18418	0	-0	0.887
Mof_Cu	Cu	0.68418	0.5	0.5	0.946
Mof_Cu	Cu	0.81582	0	-0	0.891
Mof_Cu	Cu	0.31582	0.5	0.5	0.942
Mof_Cu	Cu	-0	0.18418	-0	0.887
Mof_Cu	Cu	0.5	0.68418	0.5	0.946
Mof_Cu	Cu	-6.46094e-33	0.81582	-0	0.891
Mof_Cu	Cu	0.5	0.31582	0.5	0.942
Mof_Cl	Cl	-0	0	-0	-0.779
Mof_Cl	Cl	0.5	0.5	0.5	-0.652
Mof_C 	C 	0.1983	0.8017	0.8414	-0.404
Mof_C 	C 	0.2343	0.7657	0.782	0.219
Mof_C 	C 	0.1612	0.8388	0.9037	0.716
Mof_C 	C 	0.6983	0.3017	0.3414	-0.433
Mof_C 	C 	0.7343	0.2657	0.282	0.222
Mof_C 	C 	0.6612	0.3388	0.4037	0.756
Mof_C 	C 	0.8017	0.1983	0.8414	-0.404
Mof_C 	C 	0.7657	0.2343	0.782	0.219
Mof_C 	C 	0.8388	0.1612	0.9037	0.716
Mof_C 	C 	0.3017	0.6983	0.3414	-0.433
Mof_C 	C 	0.2657	0.7343	0.282	0.222
Mof_C 	C 	0.3388	0.6612	0.4037	0.756
Mof_C 	C 	0.1983	0.1983	0.8414	-0.409
Mof_C 	C 	0.2343	0.2343	0.782	0.215
Mof_C 	C 	0.1612	0.1612	0.9037	0.732
Mof_C 	C 	0.6983	0.6983	0.3414	-0.43
Mof_C 	C 	0.7343	0.7343	0.282	0.225
Mof_C 	C 	0.6612	0.6612	0.4037	0.752
Mof_C 	C 	0.8017	0.8017	0.8414	-0.398
Mof_C 	C 	0.7657	0.7657	0.782	0.223
Mof_C 	C 	0.8388	0.8388	0.9037	0.698
Mof_C 	C 	0.3017	0.3017	0.3414	-0.435
Mof_C 	C 	0.2657	0.2657	0.282	0.22
Mof_C 	C 	0.3388	0.3388	0.4037	0.759
Mof_C 	C 	0.8017	0.8017	0.1586	-0.428
Mof_C 	C 	0.7657	0.7657	0.218	0.22
Mof_C 	C 	0.8388	0.8388	0.0963	0.745
Mof_C 	C 	0.3017	0.3017	0.6586	-0.424
Mof_C 	C 	0.2657	0.2657	0.718	0.211
Mof_C 	C 	0.3388	0.3388	0.5963	0.756
Mof_C 	C 	0.1983	0.1983	0.1586	-0.441
Mof_C 	C 	0.2343	0.2343	0.218	0.211
Mof_C 	C 	0.1612	0.1612	0.0963	0.783
Mof_C 	C 	0.6983	0.6983	0.6586	-0.419
Mof_C 	C 	0.7343	0.7343	0.718	0.216
Mof_C 	C 	0.6612	0.6612	0.5963	0.749
Mof_C 	C 	0.8017	0.1983	0.1586	-0.435
Mof_C 	C 	0.7657	0.2343	0.218	0.215
Mof_C 	C 	0.8388	0.1612	0.0963	0.764
Mof_C 	C 	0.3017	0.6983	0.6586	-0.421
Mof_C 	C 	0.2657	0.7343	0.718	0.214
Mof_C 	C 	0.3388	0.6612	0.5963	0.753
Mof_C 	C 	0.1983	0.8017	0.1586	-0.435
Mof_C 	C 	0.2343	0.7657	0.218	0.215
Mof_C 	C 	0.1612	0.8388	0.0963	0.764
Mof_C 	C 	0.6983	0.3017	0.6586	-0.421
Mof_C 	C 	0.7343	0.2657	0.718	0.214
Mof_C 	C 	0.6612	0.3388	0.5963	0.753
Mof_C 	C 	0.3102	0.8102	0.75	-0.589
Mof_H 	H 	0.35735	0.85735	0.75	0.218
Mof_C 	C 	0.6898	0.1898	0.75	-0.589
Mof_H 	H 	0.64265	0.14265	0.75	0.207
Mof_C 	C 	0.1898	0.3102	0.75	-0.591
Mof_H 	H 	0.14265	0.35735	0.75	0.206
Mof_C 	C 	0.8102	0.6898	0.75	-0.585
Mof_H 	H 	0.85735	0.64265	0.75	0.219
Mof_C 	C 	0.3102	0.1898	0.25	-0.612
Mof_H 	H 	0.35735	0.14265	0.25	0.206
Mof_C 	C 	0.6898	0.8102	0.25	-0.605
Mof_H 	H 	0.64265	0.85735	0.25	0.219
Mof_C 	C 	0.8102	0.3102	0.25	-0.609
Mof_H 	H 	0.85735	0.35735	0.25	0.219
Mof_C 	C 	0.1898	0.6898	0.25	-0.609
Mof_H 	H 	0.14265	0.64265	0.25	0.206
Mof_C 	C 	0.6898	0.1898	0.25	-0.609
Mof_H 	H 	0.64265	0.14265	0.25	0.206
Mof_C 	C 	0.3102	0.8102	0.25	-0.609
Mof_H 	H 	0.35735	0.85735	0.25	0.219
Mof_C 	C 	0.8102	0.6898	0.25	-0.605
Mof_H 	H 	0.85735	0.64265	0.25	0.219
Mof_C 	C 	0.1898	0.3102	0.25	-0.612
Mof_H 	H 	0.14265	0.35735	0.25	0.206
Mof_C 	C 	0.3102	0.1898	0.75	-0.591
Mof_H 	H 	0.35735	0.14265	0.75	0.206
Mof_C 	C 	0.6898	0.8102	0.75	-0.585
Mof_H 	H 	0.64265	0.85735	0.75	0.219
Mof_C 	C 	0.1898	0.6898	0.75	-0.589
Mof_H 	H 	0.14265	0.64265	0.75	0.207
Mof_C 	C 	0.8102	0.3102	0.75	-0.589
Mof_H 	H 	0.85735	0.35735	0.75	0.218
_end
