data_functionalizedCrystal
_audit_creation_method	'EQeq! by Chris Wilmer'
_symmetry_space_group_name_H-M	'P1'
_symmetry_Int_Tables_number	1
_symmetry_cell_setting	triclinic
loop_
_symmetry_equiv_pos_as_xyz
  x,y,z
_cell_length_a	41.381
_cell_length_b	41.381
_cell_length_c	17.548
_cell_angle_alpha	90
_cell_angle_beta	90
_cell_angle_gamma	120
loop_
_atom_site_label
_atom_site_type_symbol
_atom_site_fract_x
_atom_site_fract_y
_atom_site_fract_z
_atom_site_charge
Mof_Zn	Zn	0.40082	0.02916	0.66023	1.216
Mof_O 	O 	0.40381	0.11058	0.65717	-0.508
Mof_O 	O 	0.38717	0.05735	0.59399	-0.502
Mof_O 	O 	0.48827	0.04776	0.66302	-0.483
Mof_O 	O 	0.43309	0.01706	0.60144	-0.482
Mof_O 	O 	0.37277	0.35649	0.18624	-0.51
Mof_O 	O 	0.4293	0.9801	0.4818	-0.148
Mof_O 	O 	0.5422	0.0439	0.6075	-0.151
Mof_C 	C 	0.39281	0.09031	0.59916	0.408
Mof_C 	C 	0.38673	0.10638	0.5282	-0.134
Mof_C 	C 	0.36972	0.08293	0.46532	0.064
Mof_C 	C 	0.36682	0.09951	0.39727	-0.019
Mof_C 	C 	0.37898	0.13723	0.39234	0.018
Mof_C 	C 	0.39489	0.16023	0.45728	-0.019
Mof_C 	C 	0.39804	0.14452	0.5272	0.059
Mof_C 	C 	0.37701	0.1545	0.31898	-0.009
Mof_C 	C 	0.37407	0.18683	0.32073	0.008
Mof_C 	C 	0.57481	0.19355	0.7218	0.044
Mof_C 	C 	0.60567	0.22931	0.7238	-0.013
Mof_C 	C 	0.6026	0.25848	0.7516	0.008
Mof_C 	C 	0.56864	0.25185	0.7849	-0.014
Mof_C 	C 	0.53779	0.21609	0.7829	0.041
Mof_C 	C 	0.46736	0.02737	0.61021	0.42
Mof_C 	C 	0.48417	0.01274	0.55203	-0.173
Mof_C 	C 	0.52011	0.02174	0.5576	0.149
Mof_C 	C 	0.46441	0.99087	0.494	0.139
Mof_C 	C 	0.37114	0.28922	0.186	0.081
Mof_C 	C 	0.3858	0.2637	0.1882	-0.009
Mof_C 	C 	0.3588	0.2492	0.1849	-0.017
Mof_Zn	Zn	0.97084	0.37166	0.66023	1.217
Mof_O 	O 	0.88942	0.29323	0.65717	-0.507
Mof_O 	O 	0.94265	0.32982	0.59399	-0.501
Mof_O 	O 	0.95224	0.44051	0.66302	-0.482
Mof_O 	O 	0.98294	0.41603	0.60144	-0.481
Mof_O 	O 	0.64351	0.01628	0.18624	-0.509
Mof_O 	O 	0.0199	0.4492	0.4818	-0.147
Mof_O 	O 	0.9561	0.4983	0.6075	-0.15
Mof_C 	C 	0.90969	0.3025	0.59916	0.409
Mof_C 	C 	0.89362	0.28035	0.5282	-0.133
Mof_C 	C 	0.91707	0.28679	0.46532	0.065
Mof_C 	C 	0.90049	0.26731	0.39727	-0.018
Mof_C 	C 	0.86277	0.24175	0.39234	0.019
Mof_C 	C 	0.83977	0.23466	0.45728	-0.018
Mof_C 	C 	0.85548	0.25352	0.5272	0.06
Mof_C 	C 	0.8455	0.22251	0.31898	-0.008
Mof_C 	C 	0.81317	0.18724	0.32073	0.009
Mof_C 	C 	0.80645	0.38126	0.7218	0.045
Mof_C 	C 	0.77069	0.37636	0.7238	-0.012
Mof_C 	C 	0.74152	0.34412	0.7516	0.009
Mof_C 	C 	0.74815	0.31679	0.7849	-0.013
Mof_C 	C 	0.78391	0.3217	0.7829	0.042
Mof_C 	C 	0.97263	0.43999	0.61021	0.421
Mof_C 	C 	0.98726	0.47143	0.55203	-0.172
Mof_C 	C 	0.97826	0.49837	0.5576	0.149
Mof_C 	C 	0.00913	0.47354	0.494	0.139
Mof_C 	C 	0.71078	0.08192	0.186	0.081
Mof_C 	C 	0.7363	0.1221	0.1882	-0.009
Mof_C 	C 	0.7508	0.1096	0.1849	-0.017
Mof_Zn	Zn	0.62834	0.59918	0.66023	1.217
Mof_O 	O 	0.70677	0.59619	0.65717	-0.507
Mof_O 	O 	0.67018	0.61283	0.59399	-0.501
Mof_O 	O 	0.55949	0.51173	0.66302	-0.482
Mof_O 	O 	0.58397	0.56691	0.60144	-0.481
Mof_O 	O 	0.98372	0.62723	0.18624	-0.509
Mof_O 	O 	0.5508	0.5707	0.4818	-0.147
Mof_O 	O 	0.5017	0.4578	0.6075	-0.15
Mof_C 	C 	0.6975	0.60719	0.59916	0.409
Mof_C 	C 	0.71965	0.61327	0.5282	-0.133
Mof_C 	C 	0.71321	0.63028	0.46532	0.065
Mof_C 	C 	0.73269	0.63318	0.39727	-0.018
Mof_C 	C 	0.75825	0.62102	0.39234	0.019
Mof_C 	C 	0.76534	0.60511	0.45728	-0.018
Mof_C 	C 	0.74648	0.60196	0.5272	0.06
Mof_C 	C 	0.77749	0.62299	0.31898	-0.008
Mof_C 	C 	0.81276	0.62593	0.32073	0.009
Mof_C 	C 	0.61874	0.42519	0.7218	0.045
Mof_C 	C 	0.62364	0.39433	0.7238	-0.012
Mof_C 	C 	0.65588	0.3974	0.7516	0.009
Mof_C 	C 	0.68321	0.43136	0.7849	-0.013
Mof_C 	C 	0.6783	0.46221	0.7829	0.042
Mof_C 	C 	0.56001	0.53264	0.61021	0.421
Mof_C 	C 	0.52857	0.51583	0.55203	-0.172
Mof_C 	C 	0.50163	0.47989	0.5576	0.149
Mof_C 	C 	0.52646	0.53559	0.494	0.139
Mof_C 	C 	0.91808	0.62886	0.186	0.081
Mof_C 	C 	0.8779	0.6142	0.1882	-0.009
Mof_C 	C 	0.8904	0.6412	0.1849	-0.017
Mof_Zn	Zn	0.59918	0.97084	0.16023	1.217
Mof_O 	O 	0.59619	0.88942	0.15717	-0.507
Mof_O 	O 	0.61283	0.94265	0.09399	-0.501
Mof_O 	O 	0.51173	0.95224	0.16302	-0.482
Mof_O 	O 	0.56691	0.98294	0.10144	-0.481
Mof_O 	O 	0.62723	0.64351	0.68624	-0.509
Mof_O 	O 	0.5707	0.0199	0.9818	-0.147
Mof_O 	O 	0.4578	0.9561	0.1075	-0.151
Mof_C 	C 	0.60719	0.90969	0.09916	0.409
Mof_C 	C 	0.61327	0.89362	0.0282	-0.133
Mof_C 	C 	0.63028	0.91707	0.96532	0.065
Mof_C 	C 	0.63318	0.90049	0.89727	-0.018
Mof_C 	C 	0.62102	0.86277	0.89234	0.019
Mof_C 	C 	0.60511	0.83977	0.95728	-0.018
Mof_C 	C 	0.60196	0.85548	0.0272	0.06
Mof_C 	C 	0.62299	0.8455	0.81898	-0.008
Mof_C 	C 	0.62593	0.81317	0.82073	0.009
Mof_C 	C 	0.42519	0.80645	0.2218	0.045
Mof_C 	C 	0.39433	0.77069	0.2238	-0.012
Mof_C 	C 	0.3974	0.74152	0.2516	0.009
Mof_C 	C 	0.43136	0.74815	0.2849	-0.012
Mof_C 	C 	0.46221	0.78391	0.2829	0.042
Mof_C 	C 	0.53264	0.97263	0.11021	0.421
Mof_C 	C 	0.51583	0.98726	0.05203	-0.172
Mof_C 	C 	0.47989	0.97826	0.0576	0.149
Mof_C 	C 	0.53559	0.00913	0.994	0.139
Mof_C 	C 	0.62886	0.71078	0.686	0.081
Mof_C 	C 	0.6142	0.7363	0.6882	-0.009
Mof_C 	C 	0.6412	0.7508	0.6849	-0.017
Mof_Zn	Zn	0.02916	0.62834	0.16023	1.217
Mof_O 	O 	0.11058	0.70677	0.15717	-0.507
Mof_O 	O 	0.05735	0.67018	0.09399	-0.501
Mof_O 	O 	0.04776	0.55949	0.16302	-0.482
Mof_O 	O 	0.01706	0.58397	0.10144	-0.481
Mof_O 	O 	0.35649	0.98372	0.68624	-0.509
Mof_O 	O 	0.9801	0.5508	0.9818	-0.147
Mof_O 	O 	0.0439	0.5017	0.1075	-0.151
Mof_C 	C 	0.09031	0.6975	0.09916	0.409
Mof_C 	C 	0.10638	0.71965	0.0282	-0.133
Mof_C 	C 	0.08293	0.71321	0.96532	0.065
Mof_C 	C 	0.09951	0.73269	0.89727	-0.018
Mof_C 	C 	0.13723	0.75825	0.89234	0.019
Mof_C 	C 	0.16023	0.76534	0.95728	-0.018
Mof_C 	C 	0.14452	0.74648	0.0272	0.06
Mof_C 	C 	0.1545	0.77749	0.81898	-0.008
Mof_C 	C 	0.18683	0.81276	0.82073	0.009
Mof_C 	C 	0.19355	0.61874	0.2218	0.045
Mof_C 	C 	0.22931	0.62364	0.2238	-0.012
Mof_C 	C 	0.25848	0.65588	0.2516	0.009
Mof_C 	C 	0.25185	0.68321	0.2849	-0.012
Mof_C 	C 	0.21609	0.6783	0.2829	0.042
Mof_C 	C 	0.02737	0.56001	0.11021	0.421
Mof_C 	C 	0.01274	0.52857	0.05203	-0.172
Mof_C 	C 	0.02174	0.50163	0.0576	0.149
Mof_C 	C 	0.99087	0.52646	0.994	0.139
Mof_C 	C 	0.28922	0.91808	0.686	0.081
Mof_C 	C 	0.2637	0.8779	0.6882	-0.009
Mof_C 	C 	0.2492	0.8904	0.6849	-0.017
Mof_Zn	Zn	0.37166	0.40082	0.16023	1.217
Mof_O 	O 	0.29323	0.40381	0.15717	-0.507
Mof_O 	O 	0.32982	0.38717	0.09399	-0.501
Mof_O 	O 	0.44051	0.48827	0.16302	-0.482
Mof_O 	O 	0.41603	0.43309	0.10144	-0.481
Mof_O 	O 	0.01628	0.37277	0.68624	-0.509
Mof_O 	O 	0.4492	0.4293	0.9818	-0.147
Mof_O 	O 	0.4983	0.5422	0.1075	-0.151
Mof_C 	C 	0.3025	0.39281	0.09916	0.409
Mof_C 	C 	0.28035	0.38673	0.0282	-0.133
Mof_C 	C 	0.28679	0.36972	0.96532	0.065
Mof_C 	C 	0.26731	0.36682	0.89727	-0.018
Mof_C 	C 	0.24175	0.37898	0.89234	0.019
Mof_C 	C 	0.23466	0.39489	0.95728	-0.018
Mof_C 	C 	0.25352	0.39804	0.0272	0.06
Mof_C 	C 	0.22251	0.37701	0.81898	-0.008
Mof_C 	C 	0.18724	0.37407	0.82073	0.009
Mof_C 	C 	0.38126	0.57481	0.2218	0.045
Mof_C 	C 	0.37636	0.60567	0.2238	-0.012
Mof_C 	C 	0.34412	0.6026	0.2516	0.009
Mof_C 	C 	0.31679	0.56864	0.2849	-0.012
Mof_C 	C 	0.3217	0.53779	0.2829	0.042
Mof_C 	C 	0.43999	0.46736	0.11021	0.421
Mof_C 	C 	0.47143	0.48417	0.05203	-0.172
Mof_C 	C 	0.49837	0.52011	0.0576	0.149
Mof_C 	C 	0.47354	0.46441	0.994	0.139
Mof_C 	C 	0.08192	0.37114	0.686	0.081
Mof_C 	C 	0.1221	0.3858	0.6882	-0.009
Mof_C 	C 	0.1096	0.3588	0.6849	-0.017
Mof_Zn	Zn	0.59918	0.97084	0.33977	1.217
Mof_O 	O 	0.59619	0.88942	0.34283	-0.507
Mof_O 	O 	0.61283	0.94265	0.40601	-0.501
Mof_O 	O 	0.51173	0.95224	0.33698	-0.482
Mof_O 	O 	0.56691	0.98294	0.39856	-0.481
Mof_O 	O 	0.62723	0.64351	0.81376	-0.509
Mof_O 	O 	0.5707	0.0199	0.5182	-0.147
Mof_O 	O 	0.4578	0.9561	0.3925	-0.15
Mof_C 	C 	0.60719	0.90969	0.40084	0.409
Mof_C 	C 	0.61327	0.89362	0.4718	-0.133
Mof_C 	C 	0.63028	0.91707	0.53468	0.065
Mof_C 	C 	0.63318	0.90049	0.60273	-0.018
Mof_C 	C 	0.62102	0.86277	0.60766	0.019
Mof_C 	C 	0.60511	0.83977	0.54272	-0.018
Mof_C 	C 	0.60196	0.85548	0.4728	0.06
Mof_C 	C 	0.62299	0.8455	0.68102	-0.008
Mof_C 	C 	0.62593	0.81317	0.67927	0.009
Mof_C 	C 	0.42519	0.80645	0.2782	0.045
Mof_C 	C 	0.39433	0.77069	0.2762	-0.012
Mof_C 	C 	0.3974	0.74152	0.2484	0.009
Mof_C 	C 	0.43136	0.74815	0.2151	-0.013
Mof_C 	C 	0.46221	0.78391	0.2171	0.042
Mof_C 	C 	0.53264	0.97263	0.38979	0.421
Mof_C 	C 	0.51583	0.98726	0.44797	-0.172
Mof_C 	C 	0.47989	0.97826	0.4424	0.149
Mof_C 	C 	0.53559	0.00913	0.506	0.139
Mof_C 	C 	0.62886	0.71078	0.814	0.081
Mof_C 	C 	0.6142	0.7363	0.8118	-0.009
Mof_C 	C 	0.6412	0.7508	0.8151	-0.017
Mof_Zn	Zn	0.02916	0.62834	0.33977	1.217
Mof_O 	O 	0.11058	0.70677	0.34283	-0.507
Mof_O 	O 	0.05735	0.67018	0.40601	-0.501
Mof_O 	O 	0.04776	0.55949	0.33698	-0.482
Mof_O 	O 	0.01706	0.58397	0.39856	-0.481
Mof_O 	O 	0.35649	0.98372	0.81376	-0.509
Mof_O 	O 	0.9801	0.5508	0.5182	-0.147
Mof_O 	O 	0.0439	0.5017	0.3925	-0.15
Mof_C 	C 	0.09031	0.6975	0.40084	0.409
Mof_C 	C 	0.10638	0.71965	0.4718	-0.133
Mof_C 	C 	0.08293	0.71321	0.53468	0.065
Mof_C 	C 	0.09951	0.73269	0.60273	-0.018
Mof_C 	C 	0.13723	0.75825	0.60766	0.019
Mof_C 	C 	0.16023	0.76534	0.54272	-0.018
Mof_C 	C 	0.14452	0.74648	0.4728	0.06
Mof_C 	C 	0.1545	0.77749	0.68102	-0.008
Mof_C 	C 	0.18683	0.81276	0.67927	0.009
Mof_C 	C 	0.19355	0.61874	0.2782	0.045
Mof_C 	C 	0.22931	0.62364	0.2762	-0.012
Mof_C 	C 	0.25848	0.65588	0.2484	0.009
Mof_C 	C 	0.25185	0.68321	0.2151	-0.013
Mof_C 	C 	0.21609	0.6783	0.2171	0.042
Mof_C 	C 	0.02737	0.56001	0.38979	0.421
Mof_C 	C 	0.01274	0.52857	0.44797	-0.172
Mof_C 	C 	0.02174	0.50163	0.4424	0.149
Mof_C 	C 	0.99087	0.52646	0.506	0.139
Mof_C 	C 	0.28922	0.91808	0.814	0.081
Mof_C 	C 	0.2637	0.8779	0.8118	-0.009
Mof_C 	C 	0.2492	0.8904	0.8151	-0.017
Mof_Zn	Zn	0.37166	0.40082	0.33977	1.217
Mof_O 	O 	0.29323	0.40381	0.34283	-0.507
Mof_O 	O 	0.32982	0.38717	0.40601	-0.501
Mof_O 	O 	0.44051	0.48827	0.33698	-0.482
Mof_O 	O 	0.41603	0.43309	0.39856	-0.481
Mof_O 	O 	0.01628	0.37277	0.81376	-0.509
Mof_O 	O 	0.4492	0.4293	0.5182	-0.147
Mof_O 	O 	0.4983	0.5422	0.3925	-0.15
Mof_C 	C 	0.3025	0.39281	0.40084	0.409
Mof_C 	C 	0.28035	0.38673	0.4718	-0.133
Mof_C 	C 	0.28679	0.36972	0.53468	0.065
Mof_C 	C 	0.26731	0.36682	0.60273	-0.018
Mof_C 	C 	0.24175	0.37898	0.60766	0.019
Mof_C 	C 	0.23466	0.39489	0.54272	-0.018
Mof_C 	C 	0.25352	0.39804	0.4728	0.06
Mof_C 	C 	0.22251	0.37701	0.68102	-0.008
Mof_C 	C 	0.18724	0.37407	0.67927	0.009
Mof_C 	C 	0.38126	0.57481	0.2782	0.045
Mof_C 	C 	0.37636	0.60567	0.2762	-0.012
Mof_C 	C 	0.34412	0.6026	0.2484	0.009
Mof_C 	C 	0.31679	0.56864	0.2151	-0.013
Mof_C 	C 	0.3217	0.53779	0.2171	0.042
Mof_C 	C 	0.43999	0.46736	0.38979	0.421
Mof_C 	C 	0.47143	0.48417	0.44797	-0.172
Mof_C 	C 	0.49837	0.52011	0.4424	0.149
Mof_C 	C 	0.47354	0.46441	0.506	0.139
Mof_C 	C 	0.08192	0.37114	0.814	0.081
Mof_C 	C 	0.1221	0.3858	0.8118	-0.009
Mof_C 	C 	0.1096	0.3588	0.8151	-0.017
Mof_Zn	Zn	0.40082	0.02916	0.83977	1.217
Mof_O 	O 	0.40381	0.11058	0.84283	-0.507
Mof_O 	O 	0.38717	0.05735	0.90601	-0.501
Mof_O 	O 	0.48827	0.04776	0.83698	-0.482
Mof_O 	O 	0.43309	0.01706	0.89856	-0.481
Mof_O 	O 	0.37277	0.35649	0.31376	-0.509
Mof_O 	O 	0.4293	0.9801	0.0182	-0.147
Mof_O 	O 	0.5422	0.0439	0.8925	-0.151
Mof_C 	C 	0.39281	0.09031	0.90084	0.409
Mof_C 	C 	0.38673	0.10638	0.9718	-0.133
Mof_C 	C 	0.36972	0.08293	0.03468	0.065
Mof_C 	C 	0.36682	0.09951	0.10273	-0.018
Mof_C 	C 	0.37898	0.13723	0.10766	0.019
Mof_C 	C 	0.39489	0.16023	0.04272	-0.018
Mof_C 	C 	0.39804	0.14452	0.9728	0.06
Mof_C 	C 	0.37701	0.1545	0.18102	-0.008
Mof_C 	C 	0.37407	0.18683	0.17927	0.009
Mof_C 	C 	0.57481	0.19355	0.7782	0.045
Mof_C 	C 	0.60567	0.22931	0.7762	-0.012
Mof_C 	C 	0.6026	0.25848	0.7484	0.009
Mof_C 	C 	0.56864	0.25185	0.7151	-0.012
Mof_C 	C 	0.53779	0.21609	0.7171	0.042
Mof_C 	C 	0.46736	0.02737	0.88979	0.421
Mof_C 	C 	0.48417	0.01274	0.94797	-0.172
Mof_C 	C 	0.52011	0.02174	0.9424	0.149
Mof_C 	C 	0.46441	0.99087	0.006	0.139
Mof_C 	C 	0.37114	0.28922	0.314	0.081
Mof_C 	C 	0.3858	0.2637	0.3118	-0.009
Mof_C 	C 	0.3588	0.2492	0.3151	-0.017
Mof_Zn	Zn	0.97084	0.37166	0.83977	1.217
Mof_O 	O 	0.88942	0.29323	0.84283	-0.507
Mof_O 	O 	0.94265	0.32982	0.90601	-0.501
Mof_O 	O 	0.95224	0.44051	0.83698	-0.482
Mof_O 	O 	0.98294	0.41603	0.89856	-0.481
Mof_O 	O 	0.64351	0.01628	0.31376	-0.509
Mof_O 	O 	0.0199	0.4492	0.0182	-0.147
Mof_O 	O 	0.9561	0.4983	0.8925	-0.151
Mof_C 	C 	0.90969	0.3025	0.90084	0.409
Mof_C 	C 	0.89362	0.28035	0.9718	-0.133
Mof_C 	C 	0.91707	0.28679	0.03468	0.065
Mof_C 	C 	0.90049	0.26731	0.10273	-0.018
Mof_C 	C 	0.86277	0.24175	0.10766	0.019
Mof_C 	C 	0.83977	0.23466	0.04272	-0.018
Mof_C 	C 	0.85548	0.25352	0.9728	0.06
Mof_C 	C 	0.8455	0.22251	0.18102	-0.008
Mof_C 	C 	0.81317	0.18724	0.17927	0.009
Mof_C 	C 	0.80645	0.38126	0.7782	0.045
Mof_C 	C 	0.77069	0.37636	0.7762	-0.012
Mof_C 	C 	0.74152	0.34412	0.7484	0.009
Mof_C 	C 	0.74815	0.31679	0.7151	-0.012
Mof_C 	C 	0.78391	0.3217	0.7171	0.042
Mof_C 	C 	0.97263	0.43999	0.88979	0.421
Mof_C 	C 	0.98726	0.47143	0.94797	-0.172
Mof_C 	C 	0.97826	0.49837	0.9424	0.149
Mof_C 	C 	0.00913	0.47354	0.006	0.139
Mof_C 	C 	0.71078	0.08192	0.314	0.081
Mof_C 	C 	0.7363	0.1221	0.3118	-0.009
Mof_C 	C 	0.7508	0.1096	0.3151	-0.017
Mof_Zn	Zn	0.62834	0.59918	0.83977	1.217
Mof_O 	O 	0.70677	0.59619	0.84283	-0.507
Mof_O 	O 	0.67018	0.61283	0.90601	-0.501
Mof_O 	O 	0.55949	0.51173	0.83698	-0.482
Mof_O 	O 	0.58397	0.56691	0.89856	-0.481
Mof_O 	O 	0.98372	0.62723	0.31376	-0.509
Mof_O 	O 	0.5508	0.5707	0.0182	-0.147
Mof_O 	O 	0.5017	0.4578	0.8925	-0.151
Mof_C 	C 	0.6975	0.60719	0.90084	0.409
Mof_C 	C 	0.71965	0.61327	0.9718	-0.133
Mof_C 	C 	0.71321	0.63028	0.03468	0.065
Mof_C 	C 	0.73269	0.63318	0.10273	-0.018
Mof_C 	C 	0.75825	0.62102	0.10766	0.019
Mof_C 	C 	0.76534	0.60511	0.04272	-0.018
Mof_C 	C 	0.74648	0.60196	0.9728	0.06
Mof_C 	C 	0.77749	0.62299	0.18102	-0.008
Mof_C 	C 	0.81276	0.62593	0.17927	0.009
Mof_C 	C 	0.61874	0.42519	0.7782	0.045
Mof_C 	C 	0.62364	0.39433	0.7762	-0.012
Mof_C 	C 	0.65588	0.3974	0.7484	0.009
Mof_C 	C 	0.68321	0.43136	0.7151	-0.012
Mof_C 	C 	0.6783	0.46221	0.7171	0.042
Mof_C 	C 	0.56001	0.53264	0.88979	0.421
Mof_C 	C 	0.52857	0.51583	0.94797	-0.172
Mof_C 	C 	0.50163	0.47989	0.9424	0.149
Mof_C 	C 	0.52646	0.53559	0.006	0.139
Mof_C 	C 	0.91808	0.62886	0.314	0.081
Mof_C 	C 	0.8779	0.6142	0.3118	-0.009
Mof_C 	C 	0.8904	0.6412	0.3151	-0.017
Mof_Zn	Zn	0.47779	0.06944	0.75	1.22
Mof_Zn	Zn	0.42543	0.10484	0.75	1.217
Mof_O 	O 	0.42657	0.05822	0.75	-0.956
Mof_O 	O 	0.5131	0.12259	0.75	-0.504
Mof_O 	O 	0.47593	0.14609	0.75	-0.527
Mof_C 	C 	0.50711	0.14944	0.75	0.455
Mof_C 	C 	0.54088	0.18695	0.75	-0.168
Mof_C 	C 	0.63549	0.29761	0.75	-0.006
Mof_C 	C 	0.67165	0.30242	0.75	0.009
Mof_Zn	Zn	0.93056	0.40835	0.75	1.22
Mof_Zn	Zn	0.89516	0.32059	0.75	1.217
Mof_O 	O 	0.94178	0.36835	0.75	-0.956
Mof_O 	O 	0.87741	0.39051	0.75	-0.504
Mof_O 	O 	0.85391	0.32984	0.75	-0.527
Mof_C 	C 	0.85056	0.35767	0.75	0.455
Mof_C 	C 	0.81305	0.35393	0.75	-0.168
Mof_C 	C 	0.70239	0.33788	0.75	-0.006
Mof_C 	C 	0.69758	0.36923	0.75	0.009
Mof_Zn	Zn	0.59165	0.52221	0.75	1.22
Mof_Zn	Zn	0.67941	0.57457	0.75	1.217
Mof_O 	O 	0.63165	0.57343	0.75	-0.956
Mof_O 	O 	0.60949	0.4869	0.75	-0.504
Mof_O 	O 	0.67016	0.52407	0.75	-0.527
Mof_C 	C 	0.64233	0.49289	0.75	0.455
Mof_C 	C 	0.64607	0.45912	0.75	-0.168
Mof_C 	C 	0.66212	0.36451	0.75	-0.006
Mof_C 	C 	0.63077	0.32835	0.75	0.009
Mof_Zn	Zn	0.52221	0.93056	0.25	1.22
Mof_Zn	Zn	0.57457	0.89516	0.25	1.217
Mof_O 	O 	0.57343	0.94178	0.25	-0.956
Mof_O 	O 	0.4869	0.87741	0.25	-0.504
Mof_O 	O 	0.52407	0.85391	0.25	-0.527
Mof_C 	C 	0.49289	0.85056	0.25	0.455
Mof_C 	C 	0.45912	0.81305	0.25	-0.168
Mof_C 	C 	0.36451	0.70239	0.25	-0.006
Mof_C 	C 	0.32835	0.69758	0.25	0.009
Mof_Zn	Zn	0.06944	0.59165	0.25	1.22
Mof_Zn	Zn	0.10484	0.67941	0.25	1.217
Mof_O 	O 	0.05822	0.63165	0.25	-0.956
Mof_O 	O 	0.12259	0.60949	0.25	-0.504
Mof_O 	O 	0.14609	0.67016	0.25	-0.527
Mof_C 	C 	0.14944	0.64233	0.25	0.455
Mof_C 	C 	0.18695	0.64607	0.25	-0.168
Mof_C 	C 	0.29761	0.66212	0.25	-0.006
Mof_C 	C 	0.30242	0.63077	0.25	0.009
Mof_Zn	Zn	0.40835	0.47779	0.25	1.22
Mof_Zn	Zn	0.32059	0.42543	0.25	1.217
Mof_O 	O 	0.36835	0.42657	0.25	-0.956
Mof_O 	O 	0.39051	0.5131	0.25	-0.504
Mof_O 	O 	0.32984	0.47593	0.25	-0.527
Mof_C 	C 	0.35767	0.50711	0.25	0.455
Mof_C 	C 	0.35393	0.54088	0.25	-0.168
Mof_C 	C 	0.33788	0.63549	0.25	-0.006
Mof_C 	C 	0.36923	0.67165	0.25	0.009
Mof_C 	C 	0.37271	0.20276	0.25	-0.008
Mof_C 	C 	0.37844	0.13862	0.25	0.01
Mof_C 	C 	0.37249	0.34243	0.25	0.424
Mof_C 	C 	0.37156	0.30607	0.25	-0.16
Mof_C 	C 	0.37217	0.23864	0.25	0.022
Mof_C 	C 	0.79724	0.16995	0.25	-0.008
Mof_C 	C 	0.86138	0.23982	0.25	0.01
Mof_C 	C 	0.65757	0.03006	0.25	0.424
Mof_C 	C 	0.69393	0.06549	0.25	-0.16
Mof_C 	C 	0.76136	0.13353	0.25	0.022
Mof_C 	C 	0.83005	0.62729	0.25	-0.008
Mof_C 	C 	0.76018	0.62156	0.25	0.01
Mof_C 	C 	0.96994	0.62751	0.25	0.424
Mof_C 	C 	0.93451	0.62844	0.25	-0.16
Mof_C 	C 	0.86647	0.62783	0.25	0.022
Mof_C 	C 	0.62729	0.79724	0.75	-0.008
Mof_C 	C 	0.62156	0.86138	0.75	0.01
Mof_C 	C 	0.62751	0.65757	0.75	0.424
Mof_C 	C 	0.62844	0.69393	0.75	-0.16
Mof_C 	C 	0.62783	0.76136	0.75	0.022
Mof_C 	C 	0.20276	0.83005	0.75	-0.008
Mof_C 	C 	0.13862	0.76018	0.75	0.01
Mof_C 	C 	0.34243	0.96994	0.75	0.424
Mof_C 	C 	0.30607	0.93451	0.75	-0.16
Mof_C 	C 	0.23864	0.86647	0.75	0.022
Mof_C 	C 	0.16995	0.37271	0.75	-0.008
Mof_C 	C 	0.23982	0.37844	0.75	0.01
Mof_C 	C 	0.03006	0.37249	0.75	0.424
Mof_C 	C 	0.06549	0.37156	0.75	-0.16
Mof_C 	C 	0.13353	0.37217	0.75	0.022
_end
