# CIF file generated by openbabel 2.4.1, see http://openbabel.sf.net
data_I
_chemical_name_common 'image0'
_cell_length_a 21.3799
_cell_length_b 21.4597
_cell_length_c 27.944
_cell_angle_alpha 90
_cell_angle_beta 90
_cell_angle_gamma 90
_space_group_name_H-M_alt 'P 1'
_space_group_name_Hall 'P 1'
loop_
    _symmetry_equiv_pos_as_xyz
    x,y,z
loop_
    _atom_site_label
    _atom_site_type_symbol
    _atom_site_fract_x
    _atom_site_fract_y
    _atom_site_fract_z
    _atom_site_occupancy
    C1      C    0.77457   0.22502   0.25067   1.000
    C2      C    0.85811   0.17215   0.28851   1.000
    H1      H    0.88410   0.16790   0.31500   1.000
    C3      C    0.81400   0.21656   0.28946   1.000
    C4      C    0.96070   0.03680   0.10110   1.000
    C5      C    0.95930   0.03950   0.05200   1.000
    C6      C    0.91591   0.08392   0.25049   1.000
    O1      O    0.92671   0.05725   0.21112   1.000
    O2      O    0.94273   0.07342   0.28860   1.000
    C7      C    0.86675   0.13325   0.25105   1.000
    C8      C    0.82870   0.14163   0.21149   1.000
    H2      H    0.83420   0.11630   0.18480   1.000
    C9      C    0.78370   0.18595   0.21077   1.000
    C10     C    0.05220   0.01380   0.10160   1.000
    C11     C    0.01240   0.05320   0.10070   1.000
    C12     C    0.01490   0.05380   0.05210   1.000
    C13     C    0.94620   0.98610   0.05200   1.000
    C14     C    0.27457   0.72502   0.25067   1.000
    C15     C    0.35811   0.67215   0.28851   1.000
    H3      H    0.38410   0.66790   0.31500   1.000
    C16     C    0.31400   0.71656   0.28946   1.000
    C17     C    0.46070   0.53680   0.10110   1.000
    C18     C    0.45930   0.53950   0.05200   1.000
    C19     C    0.41591   0.58392   0.25049   1.000
    O3      O    0.42671   0.55725   0.21112   1.000
    O4      O    0.44273   0.57342   0.28860   1.000
    C20     C    0.36675   0.63325   0.25105   1.000
    C21     C    0.32870   0.64163   0.21149   1.000
    H4      H    0.33420   0.61630   0.18480   1.000
    C22     C    0.28370   0.68595   0.21077   1.000
    C23     C    0.55220   0.51380   0.10160   1.000
    C24     C    0.51240   0.55320   0.10070   1.000
    C25     C    0.51490   0.55380   0.05210   1.000
    C26     C    0.44620   0.48610   0.05200   1.000
    C27     C    0.22543   0.77498   0.25067   1.000
    C28     C    0.14189   0.82785   0.28851   1.000
    H5      H    0.11590   0.83210   0.31500   1.000
    C29     C    0.18600   0.78344   0.28946   1.000
    C30     C    0.03930   0.96320   0.10110   1.000
    C31     C    0.04070   0.96050   0.05200   1.000
    C32     C    0.08409   0.91608   0.25049   1.000
    O5      O    0.07329   0.94275   0.21112   1.000
    O6      O    0.05727   0.92658   0.28860   1.000
    C33     C    0.13325   0.86675   0.25105   1.000
    C34     C    0.17130   0.85837   0.21149   1.000
    H6      H    0.16580   0.88370   0.18480   1.000
    C35     C    0.21630   0.81405   0.21077   1.000
    C36     C    0.94780   0.98620   0.10160   1.000
    C37     C    0.98760   0.94680   0.10070   1.000
    C38     C    0.98510   0.94620   0.05210   1.000
    C39     C    0.05380   0.01390   0.05200   1.000
    C40     C    0.72543   0.27498   0.25067   1.000
    C41     C    0.64189   0.32785   0.28851   1.000
    H7      H    0.61590   0.33210   0.31500   1.000
    C42     C    0.68600   0.28344   0.28946   1.000
    C43     C    0.53930   0.46320   0.10110   1.000
    C44     C    0.54070   0.46050   0.05200   1.000
    C45     C    0.58409   0.41608   0.25049   1.000
    O7      O    0.57329   0.44275   0.21112   1.000
    O8      O    0.55727   0.42658   0.28860   1.000
    C46     C    0.63325   0.36675   0.25105   1.000
    C47     C    0.67130   0.35837   0.21149   1.000
    H8      H    0.66580   0.38370   0.18480   1.000
    C48     C    0.71630   0.31405   0.21077   1.000
    C49     C    0.44780   0.48620   0.10160   1.000
    C50     C    0.48760   0.44680   0.10070   1.000
    C51     C    0.48510   0.44620   0.05210   1.000
    C52     C    0.55380   0.51390   0.05200   1.000
    C53     C    0.22543   0.22502   0.24933   1.000
    C54     C    0.14189   0.17215   0.21149   1.000
    H9      H    0.11590   0.16790   0.18500   1.000
    C55     C    0.18600   0.21656   0.21054   1.000
    C56     C    0.03930   0.03680   0.39890   1.000
    C57     C    0.04070   0.03950   0.44800   1.000
    C58     C    0.08409   0.08392   0.24951   1.000
    O9      O    0.07329   0.05725   0.28888   1.000
    O10     O    0.05727   0.07342   0.21140   1.000
    C59     C    0.13325   0.13325   0.24895   1.000
    C60     C    0.17130   0.14163   0.28851   1.000
    H10     H    0.16580   0.11630   0.31520   1.000
    C61     C    0.21630   0.18595   0.28923   1.000
    C62     C    0.94780   0.01380   0.39840   1.000
    C63     C    0.98760   0.05320   0.39930   1.000
    C64     C    0.98510   0.05380   0.44790   1.000
    C65     C    0.05380   0.98610   0.44800   1.000
    C66     C    0.72543   0.72502   0.24933   1.000
    C67     C    0.64189   0.67215   0.21149   1.000
    H11     H    0.61590   0.66790   0.18500   1.000
    C68     C    0.68600   0.71656   0.21054   1.000
    C69     C    0.53930   0.53680   0.39890   1.000
    C70     C    0.54070   0.53950   0.44800   1.000
    C71     C    0.58409   0.58392   0.24951   1.000
    O11     O    0.57329   0.55725   0.28888   1.000
    O12     O    0.55727   0.57342   0.21140   1.000
    C72     C    0.63325   0.63325   0.24895   1.000
    C73     C    0.67130   0.64163   0.28851   1.000
    H12     H    0.66580   0.61630   0.31520   1.000
    C74     C    0.71630   0.68595   0.28923   1.000
    C75     C    0.44780   0.51380   0.39840   1.000
    C76     C    0.48760   0.55320   0.39930   1.000
    C77     C    0.48510   0.55380   0.44790   1.000
    C78     C    0.55380   0.48610   0.44800   1.000
    C79     C    0.77457   0.77498   0.24933   1.000
    C80     C    0.85811   0.82785   0.21149   1.000
    H13     H    0.88410   0.83210   0.18500   1.000
    C81     C    0.81400   0.78344   0.21054   1.000
    C82     C    0.96070   0.96320   0.39890   1.000
    C83     C    0.95930   0.96050   0.44800   1.000
    C84     C    0.91591   0.91608   0.24951   1.000
    O13     O    0.92671   0.94275   0.28888   1.000
    O14     O    0.94273   0.92658   0.21140   1.000
    C85     C    0.86675   0.86675   0.24895   1.000
    C86     C    0.82870   0.85837   0.28851   1.000
    H14     H    0.83420   0.88370   0.31520   1.000
    C87     C    0.78370   0.81405   0.28923   1.000
    C88     C    0.05220   0.98620   0.39840   1.000
    C89     C    0.01240   0.94680   0.39930   1.000
    C90     C    0.01490   0.94620   0.44790   1.000
    C91     C    0.94620   0.01390   0.44800   1.000
    C92     C    0.27457   0.27498   0.24933   1.000
    C93     C    0.35811   0.32785   0.21149   1.000
    H15     H    0.38410   0.33210   0.18500   1.000
    C94     C    0.31400   0.28344   0.21054   1.000
    C95     C    0.46070   0.46320   0.39890   1.000
    C96     C    0.45930   0.46050   0.44800   1.000
    C97     C    0.41591   0.41608   0.24951   1.000
    O15     O    0.42671   0.44275   0.28888   1.000
    O16     O    0.44273   0.42658   0.21140   1.000
    C98     C    0.36675   0.36675   0.24895   1.000
    C99     C    0.32870   0.35837   0.28851   1.000
    H16     H    0.33420   0.38370   0.31520   1.000
    C100    C    0.28370   0.31405   0.28923   1.000
    C101    C    0.55220   0.48620   0.39840   1.000
    C102    C    0.51240   0.44680   0.39930   1.000
    C103    C    0.51490   0.44620   0.44790   1.000
    C104    C    0.44620   0.51390   0.44800   1.000
    C105    C    0.22543   0.77498   0.74933   1.000
    C106    C    0.14189   0.82785   0.71149   1.000
    H17     H    0.11590   0.83210   0.68500   1.000
    C107    C    0.18600   0.78344   0.71054   1.000
    C108    C    0.03930   0.96320   0.89890   1.000
    C109    C    0.04070   0.96050   0.94800   1.000
    C110    C    0.08409   0.91608   0.74951   1.000
    O17     O    0.07329   0.94275   0.78888   1.000
    O18     O    0.05727   0.92658   0.71140   1.000
    C111    C    0.13325   0.86675   0.74895   1.000
    C112    C    0.17130   0.85837   0.78851   1.000
    H18     H    0.16580   0.88370   0.81520   1.000
    C113    C    0.21630   0.81405   0.78923   1.000
    C114    C    0.94780   0.98620   0.89840   1.000
    C115    C    0.98760   0.94680   0.89930   1.000
    C116    C    0.98510   0.94620   0.94790   1.000
    C117    C    0.05380   0.01390   0.94800   1.000
    C118    C    0.72543   0.27498   0.74933   1.000
    C119    C    0.64189   0.32785   0.71149   1.000
    H19     H    0.61590   0.33210   0.68500   1.000
    C120    C    0.68600   0.28344   0.71054   1.000
    C121    C    0.53930   0.46320   0.89890   1.000
    C122    C    0.54070   0.46050   0.94800   1.000
    C123    C    0.58409   0.41608   0.74951   1.000
    O19     O    0.57329   0.44275   0.78888   1.000
    O20     O    0.55727   0.42658   0.71140   1.000
    C124    C    0.63325   0.36675   0.74895   1.000
    C125    C    0.67130   0.35837   0.78851   1.000
    H20     H    0.66580   0.38370   0.81520   1.000
    C126    C    0.71630   0.31405   0.78923   1.000
    C127    C    0.44780   0.48620   0.89840   1.000
    C128    C    0.48760   0.44680   0.89930   1.000
    C129    C    0.48510   0.44620   0.94790   1.000
    C130    C    0.55380   0.51390   0.94800   1.000
    C131    C    0.77457   0.22502   0.74933   1.000
    C132    C    0.85811   0.17215   0.71149   1.000
    H21     H    0.88410   0.16790   0.68500   1.000
    C133    C    0.81400   0.21656   0.71054   1.000
    C134    C    0.96070   0.03680   0.89890   1.000
    C135    C    0.95930   0.03950   0.94800   1.000
    C136    C    0.91591   0.08392   0.74951   1.000
    O21     O    0.92671   0.05725   0.78888   1.000
    O22     O    0.94273   0.07342   0.71140   1.000
    C137    C    0.86675   0.13325   0.74895   1.000
    C138    C    0.82870   0.14163   0.78851   1.000
    H22     H    0.83420   0.11630   0.81520   1.000
    C139    C    0.78370   0.18595   0.78923   1.000
    C140    C    0.05220   0.01380   0.89840   1.000
    C141    C    0.01240   0.05320   0.89930   1.000
    C142    C    0.01490   0.05380   0.94790   1.000
    C143    C    0.94620   0.98610   0.94800   1.000
    C144    C    0.27457   0.72502   0.74933   1.000
    C145    C    0.35811   0.67215   0.71149   1.000
    H23     H    0.38410   0.66790   0.68500   1.000
    C146    C    0.31400   0.71656   0.71054   1.000
    C147    C    0.46070   0.53680   0.89890   1.000
    C148    C    0.45930   0.53950   0.94800   1.000
    C149    C    0.41591   0.58392   0.74951   1.000
    O23     O    0.42671   0.55725   0.78888   1.000
    O24     O    0.44273   0.57342   0.71140   1.000
    C150    C    0.36675   0.63325   0.74895   1.000
    C151    C    0.32870   0.64163   0.78851   1.000
    H24     H    0.33420   0.61630   0.81520   1.000
    C152    C    0.28370   0.68595   0.78923   1.000
    C153    C    0.55220   0.51380   0.89840   1.000
    C154    C    0.51240   0.55320   0.89930   1.000
    C155    C    0.51490   0.55380   0.94790   1.000
    C156    C    0.44620   0.48610   0.94800   1.000
    C157    C    0.77457   0.77498   0.75067   1.000
    C158    C    0.85811   0.82785   0.78851   1.000
    H25     H    0.88410   0.83210   0.81500   1.000
    C159    C    0.81400   0.78344   0.78946   1.000
    C160    C    0.96070   0.96320   0.60110   1.000
    C161    C    0.95930   0.96050   0.55200   1.000
    C162    C    0.91591   0.91608   0.75049   1.000
    O25     O    0.92671   0.94275   0.71112   1.000
    O26     O    0.94273   0.92658   0.78860   1.000
    C163    C    0.86675   0.86675   0.75105   1.000
    C164    C    0.82870   0.85837   0.71149   1.000
    H26     H    0.83420   0.88370   0.68480   1.000
    C165    C    0.78370   0.81405   0.71077   1.000
    C166    C    0.05220   0.98620   0.60160   1.000
    C167    C    0.01240   0.94680   0.60070   1.000
    C168    C    0.01490   0.94620   0.55210   1.000
    C169    C    0.94620   0.01390   0.55200   1.000
    C170    C    0.27457   0.27498   0.75067   1.000
    C171    C    0.35811   0.32785   0.78851   1.000
    H27     H    0.38410   0.33210   0.81500   1.000
    C172    C    0.31400   0.28344   0.78946   1.000
    C173    C    0.46070   0.46320   0.60110   1.000
    C174    C    0.45930   0.46050   0.55200   1.000
    C175    C    0.41591   0.41608   0.75049   1.000
    O27     O    0.42671   0.44275   0.71112   1.000
    O28     O    0.44273   0.42658   0.78860   1.000
    C176    C    0.36675   0.36675   0.75105   1.000
    C177    C    0.32870   0.35837   0.71149   1.000
    H28     H    0.33420   0.38370   0.68480   1.000
    C178    C    0.28370   0.31405   0.71077   1.000
    C179    C    0.55220   0.48620   0.60160   1.000
    C180    C    0.51240   0.44680   0.60070   1.000
    C181    C    0.51490   0.44620   0.55210   1.000
    C182    C    0.44620   0.51390   0.55200   1.000
    C183    C    0.22543   0.22502   0.75067   1.000
    C184    C    0.14189   0.17215   0.78851   1.000
    H29     H    0.11590   0.16790   0.81500   1.000
    C185    C    0.18600   0.21656   0.78946   1.000
    C186    C    0.03930   0.03680   0.60110   1.000
    C187    C    0.04070   0.03950   0.55200   1.000
    C188    C    0.08409   0.08392   0.75049   1.000
    O29     O    0.07329   0.05725   0.71112   1.000
    O30     O    0.05727   0.07342   0.78860   1.000
    C189    C    0.13325   0.13325   0.75105   1.000
    C190    C    0.17130   0.14163   0.71149   1.000
    H30     H    0.16580   0.11630   0.68480   1.000
    C191    C    0.21630   0.18595   0.71077   1.000
    C192    C    0.94780   0.01380   0.60160   1.000
    C193    C    0.98760   0.05320   0.60070   1.000
    C194    C    0.98510   0.05380   0.55210   1.000
    C195    C    0.05380   0.98610   0.55200   1.000
    C196    C    0.72543   0.72502   0.75067   1.000
    C197    C    0.64189   0.67215   0.78851   1.000
    H31     H    0.61590   0.66790   0.81500   1.000
    C198    C    0.68600   0.71656   0.78946   1.000
    C199    C    0.53930   0.53680   0.60110   1.000
    C200    C    0.54070   0.53950   0.55200   1.000
    C201    C    0.58409   0.58392   0.75049   1.000
    O31     O    0.57329   0.55725   0.71112   1.000
    O32     O    0.55727   0.57342   0.78860   1.000
    C202    C    0.63325   0.63325   0.75105   1.000
    C203    C    0.67130   0.64163   0.71149   1.000
    H32     H    0.66580   0.61630   0.68480   1.000
    C204    C    0.71630   0.68595   0.71077   1.000
    C205    C    0.44780   0.51380   0.60160   1.000
    C206    C    0.48760   0.55320   0.60070   1.000
    C207    C    0.48510   0.55380   0.55210   1.000
    C208    C    0.55380   0.48610   0.55200   1.000
    N1      N    0.00000   0.00000   0.12550   1.000
    C209    C    0.00000   0.00000   0.02646   1.000
    Zn1     Zn   0.00000   0.00000   0.19825   1.000
    N2      N    0.50000   0.50000   0.12550   1.000
    C210    C    0.50000   0.50000   0.02646   1.000
    Zn2     Zn   0.50000   0.50000   0.19825   1.000
    N3      N    0.00000   0.00000   0.37450   1.000
    C211    C    0.00000   0.00000   0.47354   1.000
    Zn3     Zn   0.00000   0.00000   0.30175   1.000
    N4      N    0.50000   0.50000   0.37450   1.000
    C212    C    0.50000   0.50000   0.47354   1.000
    Zn4     Zn   0.50000   0.50000   0.30175   1.000
    N5      N    0.00000   0.00000   0.87450   1.000
    C213    C    0.00000   0.00000   0.97354   1.000
    Zn5     Zn   0.00000   0.00000   0.80175   1.000
    N6      N    0.50000   0.50000   0.87450   1.000
    C214    C    0.50000   0.50000   0.97354   1.000
    Zn6     Zn   0.50000   0.50000   0.80175   1.000
    N7      N    0.00000   0.00000   0.62550   1.000
    C215    C    0.00000   0.00000   0.52646   1.000
    Zn7     Zn   0.00000   0.00000   0.69825   1.000
    N8      N    0.50000   0.50000   0.62550   1.000
    C216    C    0.50000   0.50000   0.52646   1.000
    Zn8     Zn   0.50000   0.50000   0.69825   1.000
