# CIF file generated by openbabel 2.4.1, see http://openbabel.sf.net
data_I
_chemical_name_common 'image0'
_cell_length_a 12.413
_cell_length_b 12.413
_cell_length_c 23.03
_cell_angle_alpha 90
_cell_angle_beta 90
_cell_angle_gamma 90
_space_group_name_H-M_alt 'P 1'
_space_group_name_Hall 'P 1'
loop_
    _symmetry_equiv_pos_as_xyz
    x,y,z
loop_
    _atom_site_label
    _atom_site_type_symbol
    _atom_site_fract_x
    _atom_site_fract_y
    _atom_site_fract_z
    _atom_site_occupancy
    C1      C    0.08500   0.97290   0.87370   1.000
    C2      C    0.08730   0.97230   0.81400   1.000
    H1      H    0.14870   0.95290   0.89390   1.000
    H2      H    0.15170   0.95160   0.79470   1.000
    C3      C    0.58500   0.47290   0.37370   1.000
    C4      C    0.58730   0.47230   0.31400   1.000
    H3      H    0.64870   0.45290   0.39390   1.000
    H4      H    0.65170   0.45160   0.29470   1.000
    C5      C    0.91500   0.02710   0.87370   1.000
    C6      C    0.91270   0.02770   0.81400   1.000
    H5      H    0.85130   0.04710   0.89390   1.000
    H6      H    0.84830   0.04840   0.79470   1.000
    C7      C    0.41500   0.52710   0.37370   1.000
    C8      C    0.41270   0.52770   0.31400   1.000
    H7      H    0.35130   0.54710   0.39390   1.000
    H8      H    0.34830   0.54840   0.29470   1.000
    C9      C    0.02710   0.08500   0.87370   1.000
    C10     C    0.02770   0.08730   0.81400   1.000
    H9      H    0.04710   0.14870   0.89390   1.000
    H10     H    0.04840   0.15170   0.79470   1.000
    C11     C    0.52710   0.58500   0.37370   1.000
    C12     C    0.52770   0.58730   0.31400   1.000
    H11     H    0.54710   0.64870   0.39390   1.000
    H12     H    0.54840   0.65170   0.29470   1.000
    C13     C    0.97290   0.91500   0.87370   1.000
    C14     C    0.97230   0.91270   0.81400   1.000
    H13     H    0.95290   0.85130   0.89390   1.000
    H14     H    0.95160   0.84830   0.79470   1.000
    C15     C    0.47290   0.41500   0.37370   1.000
    C16     C    0.47230   0.41270   0.31400   1.000
    H15     H    0.45290   0.35130   0.39390   1.000
    H16     H    0.45160   0.34830   0.29470   1.000
    C17     C    0.91500   0.97290   0.62630   1.000
    C18     C    0.91270   0.97230   0.68600   1.000
    H17     H    0.85130   0.95290   0.60610   1.000
    H18     H    0.84830   0.95160   0.70530   1.000
    C19     C    0.41500   0.47290   0.12630   1.000
    C20     C    0.41270   0.47230   0.18600   1.000
    H19     H    0.35130   0.45290   0.10610   1.000
    H20     H    0.34830   0.45160   0.20530   1.000
    C21     C    0.08500   0.02710   0.62630   1.000
    C22     C    0.08730   0.02770   0.68600   1.000
    H21     H    0.14870   0.04710   0.60610   1.000
    H22     H    0.15170   0.04840   0.70530   1.000
    C23     C    0.58500   0.52710   0.12630   1.000
    C24     C    0.58730   0.52770   0.18600   1.000
    H23     H    0.64870   0.54710   0.10610   1.000
    H24     H    0.65170   0.54840   0.20530   1.000
    C25     C    0.97290   0.08500   0.62630   1.000
    C26     C    0.97230   0.08730   0.68600   1.000
    H25     H    0.95290   0.14870   0.60610   1.000
    H26     H    0.95160   0.15170   0.70530   1.000
    C27     C    0.47290   0.58500   0.12630   1.000
    C28     C    0.47230   0.58730   0.18600   1.000
    H27     H    0.45290   0.64870   0.10610   1.000
    H28     H    0.45160   0.65170   0.20530   1.000
    C29     C    0.02710   0.91500   0.62630   1.000
    C30     C    0.02770   0.91270   0.68600   1.000
    H29     H    0.04710   0.85130   0.60610   1.000
    H30     H    0.04840   0.84830   0.70530   1.000
    C31     C    0.52710   0.41500   0.12630   1.000
    C32     C    0.52770   0.41270   0.18600   1.000
    H31     H    0.54710   0.35130   0.10610   1.000
    H32     H    0.54840   0.34830   0.20530   1.000
    C33     C    0.91500   0.02710   0.12630   1.000
    C34     C    0.91270   0.02770   0.18600   1.000
    H33     H    0.85130   0.04710   0.10610   1.000
    H34     H    0.84830   0.04840   0.20530   1.000
    C35     C    0.41500   0.52710   0.62630   1.000
    C36     C    0.41270   0.52770   0.68600   1.000
    H35     H    0.35130   0.54710   0.60610   1.000
    H36     H    0.34830   0.54840   0.70530   1.000
    C37     C    0.08500   0.97290   0.12630   1.000
    C38     C    0.08730   0.97230   0.18600   1.000
    H37     H    0.14870   0.95290   0.10610   1.000
    H38     H    0.15170   0.95160   0.20530   1.000
    C39     C    0.58500   0.47290   0.62630   1.000
    C40     C    0.58730   0.47230   0.68600   1.000
    H39     H    0.64870   0.45290   0.60610   1.000
    H40     H    0.65170   0.45160   0.70530   1.000
    C41     C    0.97290   0.91500   0.12630   1.000
    C42     C    0.97230   0.91270   0.18600   1.000
    H41     H    0.95290   0.85130   0.10610   1.000
    H42     H    0.95160   0.84830   0.20530   1.000
    C43     C    0.47290   0.41500   0.62630   1.000
    C44     C    0.47230   0.41270   0.68600   1.000
    H43     H    0.45290   0.35130   0.60610   1.000
    H44     H    0.45160   0.34830   0.70530   1.000
    C45     C    0.02710   0.08500   0.12630   1.000
    C46     C    0.02770   0.08730   0.18600   1.000
    H45     H    0.04710   0.14870   0.10610   1.000
    H46     H    0.04840   0.15170   0.20530   1.000
    C47     C    0.52710   0.58500   0.62630   1.000
    C48     C    0.52770   0.58730   0.68600   1.000
    H47     H    0.54710   0.64870   0.60610   1.000
    H48     H    0.54840   0.65170   0.70530   1.000
    C49     C    0.08500   0.02710   0.37370   1.000
    C50     C    0.08730   0.02770   0.31400   1.000
    H49     H    0.14870   0.04710   0.39390   1.000
    H50     H    0.15170   0.04840   0.29470   1.000
    C51     C    0.58500   0.52710   0.87370   1.000
    C52     C    0.58730   0.52770   0.81400   1.000
    H51     H    0.64870   0.54710   0.89390   1.000
    H52     H    0.65170   0.54840   0.79470   1.000
    C53     C    0.91500   0.97290   0.37370   1.000
    C54     C    0.91270   0.97230   0.31400   1.000
    H53     H    0.85130   0.95290   0.39390   1.000
    H54     H    0.84830   0.95160   0.29470   1.000
    C55     C    0.41500   0.47290   0.87370   1.000
    C56     C    0.41270   0.47230   0.81400   1.000
    H55     H    0.35130   0.45290   0.89390   1.000
    H56     H    0.34830   0.45160   0.79470   1.000
    C57     C    0.02710   0.91500   0.37370   1.000
    C58     C    0.02770   0.91270   0.31400   1.000
    H57     H    0.04710   0.85130   0.39390   1.000
    H58     H    0.04840   0.84830   0.29470   1.000
    C59     C    0.52710   0.41500   0.87370   1.000
    C60     C    0.52770   0.41270   0.81400   1.000
    H59     H    0.54710   0.35130   0.89390   1.000
    H60     H    0.54840   0.34830   0.79470   1.000
    C61     C    0.97290   0.08500   0.37370   1.000
    C62     C    0.97230   0.08730   0.31400   1.000
    H61     H    0.95290   0.14870   0.39390   1.000
    H62     H    0.95160   0.15170   0.29470   1.000
    C63     C    0.47290   0.58500   0.87370   1.000
    C64     C    0.47230   0.58730   0.81400   1.000
    H63     H    0.45290   0.64870   0.89390   1.000
    H64     H    0.45160   0.65170   0.79470   1.000
    Fe1     Fe   0.00000   0.00000   0.00000   1.000
    Fe2     Fe   0.50000   0.50000   0.50000   1.000
    Fe3     Fe   0.00000   0.00000   0.50000   1.000
    Fe4     Fe   0.50000   0.50000   0.00000   1.000
    N1      N    0.10029   0.86004   0.00000   1.000
    C65     C    0.13530   0.77330   0.00000   1.000
    C66     C    0.97230   0.60520   0.00000   1.000
    H65     H    0.95080   0.67870   0.00000   1.000
    N2      N    0.60029   0.36004   0.50000   1.000
    C67     C    0.63530   0.27330   0.50000   1.000
    C68     C    0.47230   0.10520   0.50000   1.000
    H66     H    0.45080   0.17870   0.50000   1.000
    N3      N    0.89971   0.13996   0.00000   1.000
    C69     C    0.86470   0.22670   0.00000   1.000
    C70     C    0.02770   0.39480   0.00000   1.000
    H67     H    0.04920   0.32130   0.00000   1.000
    N4      N    0.39971   0.63996   0.50000   1.000
    C71     C    0.36470   0.72670   0.50000   1.000
    C72     C    0.52770   0.89480   0.50000   1.000
    H68     H    0.54920   0.82130   0.50000   1.000
    N5      N    0.13996   0.10029   0.00000   1.000
    C73     C    0.22670   0.13530   0.00000   1.000
    C74     C    0.39480   0.97230   0.00000   1.000
    H69     H    0.32130   0.95080   0.00000   1.000
    N6      N    0.63996   0.60029   0.50000   1.000
    C75     C    0.72670   0.63530   0.50000   1.000
    C76     C    0.89480   0.47230   0.50000   1.000
    H70     H    0.82130   0.45080   0.50000   1.000
    N7      N    0.86004   0.89971   0.00000   1.000
    C77     C    0.77330   0.86470   0.00000   1.000
    C78     C    0.60520   0.02770   0.00000   1.000
    H71     H    0.67870   0.04920   0.00000   1.000
    N8      N    0.36004   0.39971   0.50000   1.000
    C79     C    0.27330   0.36470   0.50000   1.000
    C80     C    0.10520   0.52770   0.50000   1.000
    H72     H    0.17870   0.54920   0.50000   1.000
    N9      N    0.89971   0.86004   0.50000   1.000
    C81     C    0.86470   0.77330   0.50000   1.000
    C82     C    0.02770   0.60520   0.50000   1.000
    H73     H    0.04920   0.67870   0.50000   1.000
    N10     N    0.39971   0.36004   0.00000   1.000
    C83     C    0.36470   0.27330   0.00000   1.000
    C84     C    0.52770   0.10520   0.00000   1.000
    H74     H    0.54920   0.17870   0.00000   1.000
    N11     N    0.10029   0.13996   0.50000   1.000
    C85     C    0.13530   0.22670   0.50000   1.000
    C86     C    0.97230   0.39480   0.50000   1.000
    H75     H    0.95080   0.32130   0.50000   1.000
    N12     N    0.60029   0.63996   0.00000   1.000
    C87     C    0.63530   0.72670   0.00000   1.000
    C88     C    0.47230   0.89480   0.00000   1.000
    H76     H    0.45080   0.82130   0.00000   1.000
    N13     N    0.86004   0.10029   0.50000   1.000
    C89     C    0.77330   0.13530   0.50000   1.000
    C90     C    0.60520   0.97230   0.50000   1.000
    H77     H    0.67870   0.95080   0.50000   1.000
    N14     N    0.36004   0.60029   0.00000   1.000
    C91     C    0.27330   0.63530   0.00000   1.000
    C92     C    0.10520   0.47230   0.00000   1.000
    H78     H    0.17870   0.45080   0.00000   1.000
    N15     N    0.13996   0.89971   0.50000   1.000
    C93     C    0.22670   0.86470   0.50000   1.000
    C94     C    0.39480   0.02770   0.50000   1.000
    H79     H    0.32130   0.04920   0.50000   1.000
    N16     N    0.63996   0.39971   0.00000   1.000
    C95     C    0.72670   0.36470   0.00000   1.000
    C96     C    0.89480   0.52770   0.00000   1.000
    H80     H    0.82130   0.54920   0.00000   1.000
    N17     N    0.00000   0.00000   0.90394   1.000
    C97     C    0.00000   0.00000   0.78220   1.000
    N18     N    0.50000   0.50000   0.40394   1.000
    C98     C    0.50000   0.50000   0.28220   1.000
    N19     N    0.00000   0.00000   0.59606   1.000
    C99     C    0.00000   0.00000   0.71780   1.000
    N20     N    0.50000   0.50000   0.09606   1.000
    C100    C    0.50000   0.50000   0.21780   1.000
    N21     N    0.00000   0.00000   0.09606   1.000
    C101    C    0.00000   0.00000   0.21780   1.000
    N22     N    0.50000   0.50000   0.59606   1.000
    C102    C    0.50000   0.50000   0.71780   1.000
    N23     N    0.00000   0.00000   0.40394   1.000
    C103    C    0.00000   0.00000   0.28220   1.000
    N24     N    0.50000   0.50000   0.90394   1.000
    C104    C    0.50000   0.50000   0.78220   1.000
    C105    C    0.16400   0.66400   0.00000   1.000
    C106    C    0.08070   0.58070   0.00000   1.000
    C107    C    0.83600   0.33600   0.00000   1.000
    C108    C    0.91930   0.41930   0.00000   1.000
    C109    C    0.33600   0.16400   0.00000   1.000
    C110    C    0.41930   0.08070   0.00000   1.000
    C111    C    0.66400   0.83600   0.00000   1.000
    C112    C    0.58070   0.91930   0.00000   1.000
    C113    C    0.83600   0.66400   0.50000   1.000
    C114    C    0.91930   0.58070   0.50000   1.000
    C115    C    0.16400   0.33600   0.50000   1.000
    C116    C    0.08070   0.41930   0.50000   1.000
    C117    C    0.66400   0.16400   0.50000   1.000
    C118    C    0.58070   0.08070   0.50000   1.000
    C119    C    0.33600   0.83600   0.50000   1.000
    C120    C    0.41930   0.91930   0.50000   1.000
