data_functionalizedCrystal
_audit_creation_method	'EQeq! by Chris Wilmer'
_symmetry_space_group_name_H-M	'P1'
_symmetry_Int_Tables_number	1
_symmetry_cell_setting	triclinic
loop_
_symmetry_equiv_pos_as_xyz
  x,y,z
_cell_length_a	15.6918
_cell_length_b	15.6918
_cell_length_c	9.46
_cell_angle_alpha	90
_cell_angle_beta	90
_cell_angle_gamma	90
loop_
_atom_site_label
_atom_site_type_symbol
_atom_site_fract_x
_atom_site_fract_y
_atom_site_fract_z
_atom_site_charge
Mof_C 	C 	0.7679	0.8067	0.8749	0.025
Mof_H 	H 	0.7916	0.8248	0.7874	0
Mof_C 	C 	0.6971	0.754	0.874	-0.033
Mof_H 	H 	0.6747	0.7349	0.7862	0.031
Mof_H 	H 	0.1194	0.0472	0.6212	-0.173
Mof_H 	H 	0.1174	0.9489	0.6223	0.157
Mof_C 	C 	0.2321	0.1933	0.8749	0.036
Mof_H 	H 	0.2084	0.1752	0.7874	0.029
Mof_C 	C 	0.3029	0.246	0.874	-0.016
Mof_H 	H 	0.3253	0.2651	0.7862	0.054
Mof_H 	H 	0.8806	0.9528	0.6212	-0.083
Mof_H 	H 	0.8826	0.0511	0.6223	0.108
Mof_C 	C 	0.1933	0.7679	0.8749	0.178
Mof_H 	H 	0.1752	0.7916	0.7874	-0.031
Mof_C 	C 	0.246	0.6971	0.874	-0.21
Mof_H 	H 	0.2651	0.6747	0.7862	0.114
Mof_H 	H 	0.9528	0.1194	0.6212	-0.11
Mof_H 	H 	0.0511	0.1174	0.6223	0.169
Mof_C 	C 	0.8067	0.2321	0.8749	-0.114
Mof_H 	H 	0.8248	0.2084	0.7874	0.062
Mof_C 	C 	0.754	0.3029	0.874	0.163
Mof_H 	H 	0.7349	0.3253	0.7862	-0.028
Mof_H 	H 	0.0472	0.8806	0.6212	-0.146
Mof_H 	H 	0.9489	0.8826	0.6223	0.096
Mof_C 	C 	0.2321	0.8067	0.1251	-0.133
Mof_H 	H 	0.2084	0.8248	0.2126	0.065
Mof_C 	C 	0.3029	0.754	0.126	0.135
Mof_H 	H 	0.3253	0.7349	0.2138	-0.026
Mof_H 	H 	0.8806	0.0472	0.3788	-0.147
Mof_H 	H 	0.8826	0.9489	0.3777	0.095
Mof_C 	C 	0.7679	0.1933	0.1251	0.159
Mof_H 	H 	0.7916	0.1752	0.2126	-0.029
Mof_C 	C 	0.6971	0.246	0.126	-0.239
Mof_H 	H 	0.6747	0.2651	0.2138	0.115
Mof_H 	H 	0.1194	0.9528	0.3788	-0.11
Mof_H 	H 	0.1174	0.0511	0.3777	0.168
Mof_C 	C 	0.8067	0.7679	0.1251	0.008
Mof_H 	H 	0.8248	0.7916	0.2126	0.003
Mof_C 	C 	0.754	0.6971	0.126	-0.06
Mof_H 	H 	0.7349	0.6747	0.2138	0.034
Mof_H 	H 	0.0472	0.1194	0.3788	-0.173
Mof_H 	H 	0.9489	0.1174	0.3777	0.157
Mof_C 	C 	0.1933	0.2321	0.1251	0.018
Mof_H 	H 	0.1752	0.2084	0.2126	0.032
Mof_C 	C 	0.246	0.3029	0.126	-0.044
Mof_H 	H 	0.2651	0.3253	0.2138	0.055
Mof_H 	H 	0.9528	0.8806	0.3788	-0.084
Mof_H 	H 	0.0511	0.8826	0.3777	0.107
Mof_C 	C 	0.2321	0.1933	0.1251	0.018
Mof_H 	H 	0.2084	0.1752	0.2126	0.032
Mof_C 	C 	0.3029	0.246	0.126	-0.044
Mof_H 	H 	0.3253	0.2651	0.2138	0.055
Mof_H 	H 	0.8806	0.9528	0.3788	-0.084
Mof_H 	H 	0.8826	0.0511	0.3777	0.107
Mof_C 	C 	0.7679	0.8067	0.1251	0.008
Mof_H 	H 	0.7916	0.8248	0.2126	0.003
Mof_C 	C 	0.6971	0.754	0.126	-0.06
Mof_H 	H 	0.6747	0.7349	0.2138	0.034
Mof_H 	H 	0.1194	0.0472	0.3788	-0.173
Mof_H 	H 	0.1174	0.9489	0.3777	0.157
Mof_C 	C 	0.8067	0.2321	0.1251	-0.133
Mof_H 	H 	0.8248	0.2084	0.2126	0.065
Mof_C 	C 	0.754	0.3029	0.126	0.135
Mof_H 	H 	0.7349	0.3253	0.2138	-0.026
Mof_H 	H 	0.0472	0.8806	0.3788	-0.147
Mof_H 	H 	0.9489	0.8826	0.3777	0.095
Mof_C 	C 	0.1933	0.7679	0.1251	0.159
Mof_H 	H 	0.1752	0.7916	0.2126	-0.029
Mof_C 	C 	0.246	0.6971	0.126	-0.239
Mof_H 	H 	0.2651	0.6747	0.2138	0.115
Mof_H 	H 	0.9528	0.1194	0.3788	-0.11
Mof_H 	H 	0.0511	0.1174	0.3777	0.168
Mof_C 	C 	0.7679	0.1933	0.8749	0.178
Mof_H 	H 	0.7916	0.1752	0.7874	-0.031
Mof_C 	C 	0.6971	0.246	0.874	-0.21
Mof_H 	H 	0.6747	0.2651	0.7862	0.114
Mof_H 	H 	0.1194	0.9528	0.6212	-0.11
Mof_H 	H 	0.1174	0.0511	0.6223	0.169
Mof_C 	C 	0.2321	0.8067	0.8749	-0.114
Mof_H 	H 	0.2084	0.8248	0.7874	0.062
Mof_C 	C 	0.3029	0.754	0.874	0.163
Mof_H 	H 	0.3253	0.7349	0.7862	-0.028
Mof_H 	H 	0.8806	0.0472	0.6212	-0.146
Mof_H 	H 	0.8826	0.9489	0.6223	0.096
Mof_C 	C 	0.1933	0.2321	0.8749	0.037
Mof_H 	H 	0.1752	0.2084	0.7874	0.03
Mof_C 	C 	0.246	0.3029	0.874	-0.016
Mof_H 	H 	0.2651	0.3253	0.7862	0.054
Mof_H 	H 	0.9528	0.8806	0.6212	-0.083
Mof_H 	H 	0.0511	0.8826	0.6223	0.108
Mof_C 	C 	0.8067	0.7679	0.8749	0.026
Mof_H 	H 	0.8248	0.7916	0.7874	0.001
Mof_C 	C 	0.754	0.6971	0.874	-0.032
Mof_H 	H 	0.7349	0.6747	0.7862	0.032
Mof_H 	H 	0.0472	0.1194	0.6212	-0.172
Mof_H 	H 	0.9489	0.1174	0.6223	0.158
Mof_Zn	Zn	1.91858e-33	0	0.84879	1.343
Mof_N 	N 	1.44641e-33	2.70928e-33	0.6399	0.002
Mof_Zn	Zn	-3.35529e-34	0	0.15121	1.337
Mof_N 	N 	3.52324e-33	2.70928e-33	0.3601	0.002
Mof_C 	C 	0.0871	2.70928e-33	0.587	-2.077
Mof_C 	C 	0.9129	2.70928e-33	0.587	-1.448
Mof_C 	C 	1.32684e-33	0.0871	0.587	-2.077
Mof_C 	C 	1.32684e-33	0.9129	0.587	-1.448
Mof_C 	C 	0.9129	0	0.413	-1.447
Mof_C 	C 	0.0871	0	0.413	-2.076
Mof_C 	C 	9.33534e-34	0.0871	0.413	-2.076
Mof_C 	C 	-1.77575e-33	0.9129	0.413	-1.447
Mof_O 	O 	0.9105	0.9105	0.8866	-0.635
Mof_C 	C 	0.0618	0.0618	0.586	2.32
Mof_O 	O 	0.0895	0.0895	0.8866	-0.373
Mof_C 	C 	0.9382	0.9382	0.586	1.143
Mof_O 	O 	0.0895	0.9105	0.8866	-0.502
Mof_C 	C 	0.9382	0.0618	0.586	1.734
Mof_O 	O 	0.9105	0.0895	0.8866	-0.502
Mof_C 	C 	0.0618	0.9382	0.586	1.734
Mof_O 	O 	0.0895	0.9105	0.1134	-0.537
Mof_C 	C 	0.9382	0.0618	0.414	1.733
Mof_O 	O 	0.9105	0.0895	0.1134	-0.537
Mof_C 	C 	0.0618	0.9382	0.414	1.733
Mof_O 	O 	0.9105	0.9105	0.1134	-0.669
Mof_C 	C 	0.0618	0.0618	0.414	2.32
Mof_O 	O 	0.0895	0.0895	0.1134	-0.408
Mof_C 	C 	0.9382	0.9382	0.414	1.142
Mof_C 	C 	0.8855	0.8855	-0	0.465
Mof_C 	C 	0.5847	0.5847	-0	-0.032
Mof_C 	C 	0.1145	0.1145	-0	0.428
Mof_C 	C 	0.4153	0.4153	-0	-0.025
Mof_C 	C 	0.1145	0.8855	-0	0.446
Mof_C 	C 	0.4153	0.5847	-0	-0.028
Mof_C 	C 	0.8855	0.1145	-0	0.446
Mof_C 	C 	0.5847	0.4153	-0	-0.028
Mof_C 	C 	0.8052	0.8338	-0	-0.101
Mof_C 	C 	0.6577	0.7282	-0	-0.02
Mof_C 	C 	0.5757	0.675	-0	0.02
Mof_C 	C 	0.1948	0.1662	-0	-0.059
Mof_C 	C 	0.3423	0.2718	-0	-0.006
Mof_C 	C 	0.4243	0.325	-0	0.019
Mof_C 	C 	0.1662	0.8052	-0	0.236
Mof_C 	C 	0.2718	0.6577	-0	0.137
Mof_C 	C 	0.325	0.5757	-0	-0.018
Mof_C 	C 	0.8338	0.1948	-0	-0.396
Mof_C 	C 	0.7282	0.3423	-0	-0.163
Mof_C 	C 	0.675	0.4243	-0	0.057
Mof_C 	C 	0.1948	0.8338	-0	-0.396
Mof_C 	C 	0.3423	0.7282	-0	-0.163
Mof_C 	C 	0.4243	0.675	-0	0.057
Mof_C 	C 	0.8052	0.1662	-0	0.236
Mof_C 	C 	0.6577	0.2718	-0	0.137
Mof_C 	C 	0.5757	0.325	-0	-0.018
Mof_C 	C 	0.8338	0.8052	-0	-0.101
Mof_C 	C 	0.7282	0.6577	-0	-0.02
Mof_C 	C 	0.675	0.5757	-0	0.02
Mof_C 	C 	0.1662	0.1948	-0	-0.059
Mof_C 	C 	0.2718	0.3423	-0	-0.006
Mof_C 	C 	0.325	0.4243	-0	0.019
Mof_C 	C 	0.5	0.7167	-0	-0.122
Mof_H 	H 	0.5	0.7772	-0	0.046
Mof_C 	C 	0.5	0.2833	-0	-0.077
Mof_H 	H 	0.5	0.2228	-0	0.076
Mof_C 	C 	0.2833	0.5	-0	-0.077
Mof_H 	H 	0.2228	0.5	-0	0.076
Mof_C 	C 	0.7167	0.5	-0	-0.122
Mof_H 	H 	0.7772	0.5	-0	0.046
Mof_C 	C 	0.5439	0.5	-0	-0
Mof_C 	C 	0.4561	0.5	-0	0.005
Mof_C 	C 	0.5	0.5439	-0	-0
Mof_C 	C 	0.5	0.4561	-0	0.005
_end
