data_functionalizedCrystal
_audit_creation_method	'EQeq! by Chris Wilmer'
_symmetry_space_group_name_H-M	'P1'
_symmetry_Int_Tables_number	1
_symmetry_cell_setting	triclinic
loop_
_symmetry_equiv_pos_as_xyz
  x,y,z
_cell_length_a	15.1635
_cell_length_b	17.9739
_cell_length_c	10.0176
_cell_angle_alpha	90
_cell_angle_beta	90
_cell_angle_gamma	90
loop_
_atom_site_label
_atom_site_type_symbol
_atom_site_fract_x
_atom_site_fract_y
_atom_site_fract_z
_atom_site_charge
Mof_Zn	Zn	0.95159	0.33713	0.8378	1.158
Mof_N 	N 	0.8212	0.34513	0.8045	-0.391
Mof_N 	N 	0.9882	0.44081	0.8785	-0.417
Mof_N 	N 	0.9997	0.20417	0.1678	-0.354
Mof_N 	N 	0.9705	0.26874	0.9922	-0.381
Mof_C 	C 	0.0959	0.3137	0.1318	-0.949
Mof_H 	H 	0.0999	0.3526	0.0664	0.276
Mof_H 	H 	0.1502	0.2862	0.1334	0.274
Mof_H 	H 	0.0854	0.3351	0.2182	0.269
Mof_C 	C 	0.0221	0.263	0.0968	0.41
Mof_N 	N 	0.7929	0.3513	0.6759	-0.112
Mof_N 	N 	0.9137	0.20911	0.9971	-0.142
Mof_N 	N 	0.9314	0.17162	0.1025	-0.094
Mof_N 	N 	0.993	0.46453	0.0068	-0.119
Mof_H 	H 	0.0093	0.5497	0.6259	0.311
Mof_H 	H 	0.9443	0.4819	0.6259	0.285
Mof_H 	H 	0.0464	0.4683	0.6259	0.316
Mof_H 	H 	0.6903	0.3374	0.0601	0.383
Mof_H 	H 	0.78	0.3806	0.0639	0.386
Mof_H 	H 	0.7796	0.2935	0.0562	0.401
Mof_Zn	Zn	0.95159	0.83713	0.3378	1.16
Mof_N 	N 	0.8212	0.84513	0.3045	-0.396
Mof_N 	N 	0.9882	0.94081	0.3785	-0.373
Mof_N 	N 	0.9997	0.70417	0.6678	-0.355
Mof_N 	N 	0.9705	0.76874	0.4922	-0.354
Mof_C 	C 	0.0959	0.8137	0.6318	-0.878
Mof_H 	H 	0.0999	0.8526	0.5664	0.241
Mof_H 	H 	0.1502	0.7862	0.6334	0.248
Mof_H 	H 	0.0854	0.8351	0.7182	0.242
Mof_C 	C 	0.0221	0.763	0.5968	0.356
Mof_N 	N 	0.7929	0.8513	0.1759	-0.105
Mof_N 	N 	0.9137	0.70911	0.4971	-0.129
Mof_N 	N 	0.9314	0.67162	0.6025	-0.132
Mof_N 	N 	0.993	0.96453	0.5068	-0.161
Mof_H 	H 	0.0093	0.0497	0.1259	0.127
Mof_H 	H 	0.9443	0.9819	0.1259	0.074
Mof_H 	H 	0.0464	0.9683	0.1259	0.105
Mof_H 	H 	0.6903	0.8374	0.5601	0.392
Mof_H 	H 	0.78	0.8806	0.5639	0.394
Mof_H 	H 	0.7796	0.7935	0.5562	0.408
Mof_Zn	Zn	0.04841	0.66287	0.8378	1.169
Mof_N 	N 	0.1788	0.65487	0.8045	-0.391
Mof_N 	N 	0.0118	0.55919	0.8785	-0.389
Mof_N 	N 	0.0003	0.79583	0.1678	-0.277
Mof_N 	N 	0.0295	0.73126	0.9922	-0.316
Mof_C 	C 	0.9041	0.6863	0.1318	-0.757
Mof_H 	H 	0.9001	0.6474	0.0664	0.203
Mof_H 	H 	0.8498	0.7138	0.1334	0.214
Mof_H 	H 	0.9146	0.6649	0.2182	0.2
Mof_C 	C 	0.9779	0.737	0.0968	0.238
Mof_N 	N 	0.2071	0.6487	0.6759	-0.109
Mof_N 	N 	0.0863	0.79089	0.9971	-0.142
Mof_N 	N 	0.0686	0.82838	0.1025	-0.091
Mof_N 	N 	0.007	0.53547	0.0068	-0.075
Mof_H 	H 	0.9907	0.4503	0.6259	0.238
Mof_H 	H 	0.0557	0.5181	0.6259	0.261
Mof_H 	H 	0.9536	0.5317	0.6259	0.25
Mof_H 	H 	0.3097	0.6626	0.0601	0.391
Mof_H 	H 	0.22	0.6194	0.0639	0.397
Mof_H 	H 	0.2204	0.7065	0.0562	0.409
Mof_Zn	Zn	0.04841	0.16287	0.3378	1.175
Mof_N 	N 	0.1788	0.15487	0.3045	-0.404
Mof_N 	N 	0.0118	0.05919	0.3785	-0.321
Mof_N 	N 	0.0003	0.29583	0.6678	-0.278
Mof_N 	N 	0.0295	0.23126	0.4922	-0.292
Mof_C 	C 	0.9041	0.1863	0.6318	-0.728
Mof_H 	H 	0.9001	0.1474	0.5664	0.193
Mof_H 	H 	0.8498	0.2138	0.6334	0.204
Mof_H 	H 	0.9146	0.1649	0.7182	0.196
Mof_C 	C 	0.9779	0.237	0.5968	0.199
Mof_N 	N 	0.2071	0.1487	0.1759	-0.094
Mof_N 	N 	0.0863	0.29089	0.4971	-0.127
Mof_N 	N 	0.0686	0.32838	0.6025	-0.122
Mof_N 	N 	0.007	0.03547	0.5068	-0.065
Mof_H 	H 	0.9907	0.9503	0.1259	0.092
Mof_H 	H 	0.0557	0.0181	0.1259	0.151
Mof_H 	H 	0.9536	0.0317	0.1259	0.139
Mof_H 	H 	0.3097	0.1626	0.5601	0.438
Mof_H 	H 	0.22	0.1194	0.5639	0.45
Mof_H 	H 	0.2204	0.2065	0.5562	0.454
Mof_Zn	Zn	0.45159	0.66287	0.8378	1.162
Mof_N 	N 	0.3212	0.65487	0.8045	-0.394
Mof_N 	N 	0.4882	0.55919	0.8785	-0.439
Mof_N 	N 	0.4997	0.79583	0.1678	-0.32
Mof_N 	N 	0.4705	0.73126	0.9922	-0.349
Mof_C 	C 	0.5959	0.6863	0.1318	-0.845
Mof_H 	H 	0.5999	0.6474	0.0664	0.235
Mof_H 	H 	0.6502	0.7138	0.1334	0.24
Mof_H 	H 	0.5854	0.6649	0.2182	0.229
Mof_C 	C 	0.5221	0.737	0.0968	0.318
Mof_N 	N 	0.2929	0.6487	0.6759	-0.115
Mof_N 	N 	0.4137	0.79089	0.9971	-0.146
Mof_N 	N 	0.4314	0.82838	0.1025	-0.107
Mof_N 	N 	0.493	0.53547	0.0068	-0.098
Mof_H 	H 	0.5093	0.4503	0.6259	0.415
Mof_H 	H 	0.4443	0.5181	0.6259	0.412
Mof_H 	H 	0.5464	0.5317	0.6259	0.422
Mof_H 	H 	0.1903	0.6626	0.0601	0.393
Mof_H 	H 	0.28	0.6194	0.0639	0.395
Mof_H 	H 	0.2796	0.7065	0.0562	0.408
Mof_Zn	Zn	0.45159	0.16287	0.3378	1.168
Mof_N 	N 	0.3212	0.15487	0.3045	-0.407
Mof_N 	N 	0.4882	0.05919	0.3785	-0.368
Mof_N 	N 	0.4997	0.29583	0.6678	-0.321
Mof_N 	N 	0.4705	0.23126	0.4922	-0.324
Mof_C 	C 	0.5959	0.1863	0.6318	-0.816
Mof_H 	H 	0.5999	0.1474	0.5664	0.226
Mof_H 	H 	0.6502	0.2138	0.6334	0.231
Mof_H 	H 	0.5854	0.1649	0.7182	0.225
Mof_C 	C 	0.5221	0.237	0.5968	0.28
Mof_N 	N 	0.2929	0.1487	0.1759	-0.099
Mof_N 	N 	0.4137	0.29089	0.4971	-0.131
Mof_N 	N 	0.4314	0.32838	0.6025	-0.138
Mof_N 	N 	0.493	0.03547	0.5068	-0.088
Mof_H 	H 	0.5093	0.9503	0.1259	0.261
Mof_H 	H 	0.4443	0.0181	0.1259	0.296
Mof_H 	H 	0.5464	0.0317	0.1259	0.305
Mof_H 	H 	0.1903	0.1626	0.5601	0.44
Mof_H 	H 	0.28	0.1194	0.5639	0.449
Mof_H 	H 	0.2796	0.2065	0.5562	0.453
Mof_Zn	Zn	0.54841	0.33713	0.8378	1.162
Mof_N 	N 	0.6788	0.34513	0.8045	-0.391
Mof_N 	N 	0.5118	0.44081	0.8785	-0.439
Mof_N 	N 	0.5003	0.20417	0.1678	-0.318
Mof_N 	N 	0.5295	0.26874	0.9922	-0.349
Mof_C 	C 	0.4041	0.3137	0.1318	-0.847
Mof_H 	H 	0.4001	0.3526	0.0664	0.237
Mof_H 	H 	0.3498	0.2862	0.1334	0.241
Mof_H 	H 	0.4146	0.3351	0.2182	0.23
Mof_C 	C 	0.4779	0.263	0.0968	0.322
Mof_N 	N 	0.7071	0.3513	0.6759	-0.115
Mof_N 	N 	0.5863	0.20911	0.9971	-0.142
Mof_N 	N 	0.5686	0.17162	0.1025	-0.099
Mof_N 	N 	0.507	0.46453	0.0068	-0.098
Mof_H 	H 	0.4907	0.5497	0.6259	0.415
Mof_H 	H 	0.5557	0.4819	0.6259	0.412
Mof_H 	H 	0.4536	0.4683	0.6259	0.422
Mof_H 	H 	0.8097	0.3374	0.0601	0.381
Mof_H 	H 	0.72	0.3806	0.0639	0.386
Mof_H 	H 	0.7204	0.2935	0.0562	0.402
Mof_Zn	Zn	0.54841	0.83713	0.3378	1.166
Mof_N 	N 	0.6788	0.84513	0.3045	-0.396
Mof_N 	N 	0.5118	0.94081	0.3785	-0.393
Mof_N 	N 	0.5003	0.70417	0.6678	-0.319
Mof_N 	N 	0.5295	0.76874	0.4922	-0.322
Mof_C 	C 	0.4041	0.8137	0.6318	-0.775
Mof_H 	H 	0.4001	0.8526	0.5664	0.202
Mof_H 	H 	0.3498	0.7862	0.6334	0.214
Mof_H 	H 	0.4146	0.8351	0.7182	0.203
Mof_C 	C 	0.4779	0.763	0.5968	0.267
Mof_N 	N 	0.7071	0.8513	0.1759	-0.108
Mof_N 	N 	0.5863	0.70911	0.4971	-0.13
Mof_N 	N 	0.5686	0.67162	0.6025	-0.138
Mof_N 	N 	0.507	0.96453	0.5068	-0.14
Mof_H 	H 	0.4907	0.0497	0.1259	0.224
Mof_H 	H 	0.5557	0.9819	0.1259	0.194
Mof_H 	H 	0.4536	0.9683	0.1259	0.205
Mof_H 	H 	0.8097	0.8374	0.5601	0.39
Mof_H 	H 	0.72	0.8806	0.5639	0.394
Mof_H 	H 	0.7204	0.7935	0.5562	0.408
Mof_C 	C 	0.75	0.3421	0.8824	0.668
Mof_C 	C 	0.75	0.3381	0.0282	-2.361
Mof_C 	C 	0.75	0.8421	0.3824	0.718
Mof_C 	C 	0.75	0.8381	0.5282	-2.465
Mof_C 	C 	0.25	0.6579	0.8824	0.681
Mof_C 	C 	0.25	0.6619	0.0282	-2.411
Mof_C 	C 	0.25	0.1579	0.3824	0.797
Mof_C 	C 	0.25	0.1619	0.5282	-2.727
Mof_C 	C 	-2.99329e-33	0.5	0.6579	-1.747
Mof_C 	C 	-2.62966e-33	0.5	0.8047	0.575
Mof_C 	C 	1.54684e-33	0	0.1579	-0.769
Mof_C 	C 	7.54742e-34	0	0.3047	0.379
Mof_C 	C 	0.5	0.5	0.6579	-2.565
Mof_C 	C 	0.5	0.5	0.8047	0.754
Mof_C 	C 	0.5	0	0.1579	-1.55
Mof_C 	C 	0.5	0	0.3047	0.55
_end
