data_functionalizedCrystal
_audit_creation_method	'EQeq! by Chris Wilmer'
_symmetry_space_group_name_H-M	'P1'
_symmetry_Int_Tables_number	1
_symmetry_cell_setting	triclinic
loop_
_symmetry_equiv_pos_as_xyz
  x,y,z
_cell_length_a	11.8018
_cell_length_b	12.0171
_cell_length_c	12.0171
_cell_angle_alpha	76.0473
_cell_angle_beta	60.591
_cell_angle_gamma	60.591
loop_
_atom_site_label
_atom_site_type_symbol
_atom_site_fract_x
_atom_site_fract_y
_atom_site_fract_z
_atom_site_charge
Mof_Al	Al	0.19415	0	0.6117	4.276
Mof_Al	Al	0.44416	0.11169	0.5	4.361
Mof_Al	Al	0.05584	0.88831	0.5	6.208
Mof_Al	Al	0.80585	0	0.3883	4.169
Mof_H 	H 	0.45077	0.05044	0.19646	-0.101
Mof_H 	H 	0.89723	0.30354	0.55044	-0.078
Mof_H 	H 	0.4398	0.9352	0.4352	0.574
Mof_H 	H 	0.49879	0.05044	0.80354	-0.092
Mof_H 	H 	0.79923	0.30354	0.44956	-0.046
Mof_H 	H 	0.35277	0.94956	0.19646	-0.031
Mof_H 	H 	0.125	0.0648	0.4352	0.604
Mof_H 	H 	0.625	0.9352	0.5648	0.566
Mof_H 	H 	0.11416	0	-0	-0.032
Mof_H 	H 	0.13584	0.5	0.5	0.004
Mof_H 	H 	0.69767	0.94956	0.80354	-0.04
Mof_H 	H 	0.36416	0.5	0.5	-0.013
Mof_H 	H 	0.8102	0.0648	0.5648	0.612
Mof_H 	H 	0.55233	0.69646	0.55044	-0.032
Mof_H 	H 	0.88584	0	-0	0.024
Mof_H 	H 	0.75121	0.69646	0.44956	-0.032
Mof_C 	C 	0.42304	0.02884	0.88768	0.057
Mof_C 	C 	0.79687	0	-0	-0.007
Mof_C 	C 	0.45313	0.5	0.5	0.28
Mof_C 	C 	0.93982	0.95296	0.76686	1.53
Mof_C 	C 	0.33956	0.97116	0.11232	0.397
Mof_C 	C 	0.95668	0.73314	0.45296	1.182
Mof_C 	C 	0.69069	0.5	0.5	-0.075
Mof_C 	C 	0.80806	0.97116	0.88768	-0.281
Mof_C 	C 	0.30426	0.02884	0.88768	-0.273
Mof_C 	C 	0.5831	0.38768	0.47116	-0.378
Mof_C 	C 	0.65964	0.04704	0.23314	0.522
Mof_C 	C 	0.20313	0	-0	-0.05
Mof_C 	C 	0.6669	0.02884	0.11232	-0.258
Mof_C 	C 	0.54812	0.02884	0.11232	0.093
Mof_C 	C 	0.59036	0.26686	0.45296	0.914
Mof_C 	C 	0.56072	0.61232	0.52884	0.148
Mof_C 	C 	0.04687	0.5	0.5	0.169
Mof_C 	C 	0.02922	0.38768	0.52884	-0.532
Mof_C 	C 	0.29332	0.04704	0.76686	0.54
Mof_C 	C 	0.31018	0.73314	0.54704	1.025
Mof_C 	C 	0.80931	0.5	0.5	-0.137
Mof_C 	C 	0.44194	0.61232	0.52884	-0.399
Mof_C 	C 	0.68928	0.97116	0.88768	0.446
Mof_C 	C 	0.94574	0.61232	0.47116	-0.296
Mof_C 	C 	0.70188	0.38768	0.47116	0.135
Mof_C 	C 	0.22078	0.97116	0.11232	-0.218
Mof_C 	C 	0.91044	0.38768	0.52884	0.322
Mof_C 	C 	0.14278	0.26686	0.54704	0.955
Mof_C 	C 	0.82696	0.61232	0.47116	0.17
Mof_C 	C 	0.55931	0	-0	-0.322
Mof_C 	C 	0.10722	0.95296	0.23314	1.173
Mof_C 	C 	0.44069	0	-0	-0.281
Mof_O 	O 	0.5377	0.11043	0.31989	-1.157
Mof_O 	O 	0.87099	0.00401	0.50401	-2.391
Mof_O 	O 	0.02398	0.74286	0.5018	-1.486
Mof_O 	O 	0.98136	0.0018	0.24286	-1.228
Mof_O 	O 	0.77578	0.9982	0.24286	-0.622
Mof_O 	O 	0.96802	0.88957	0.68011	-1.507
Mof_O 	O 	0.10759	0.18011	0.61043	-1.263
Mof_O 	O 	0.47422	0.25714	0.5018	-1.088
Mof_O 	O 	0.7123	0.18011	0.38957	-1.195
Mof_O 	O 	0.37901	0.99599	0.49599	-1.763
Mof_O 	O 	0.23316	0.74286	0.4982	-1.344
Mof_O 	O 	0.14241	0.88957	0.31989	-1.532
Mof_O 	O 	0.35187	0.11043	0.68011	-1.164
Mof_O 	O 	0.22602	0.9982	0.75714	-0.689
Mof_O 	O 	0.26864	0.25714	0.4982	-1.102
Mof_O 	O 	0.01684	0.0018	0.75714	-1.528
Mof_O 	O 	0.89813	0.81989	0.38957	-1.125
Mof_O 	O 	0.125	0.00401	0.49599	-2.482
Mof_O 	O 	0.625	0.99599	0.50401	-1.733
Mof_O 	O 	0.28198	0.81989	0.61043	-1.16
Mof_H 	H 	0.812	0.4043	0.8477	0.003
Mof_H 	H 	0.354	0.6322	0.0078	0.211
Mof_H 	H 	0.1284	0.4964	0.7486	-0.029
Mof_H 	H 	0.8748	0.2486	0.0036	-0.011
Mof_H 	H 	0.064	0.5957	0.1523	0.07
Mof_H 	H 	0.227	0.483	0.837	-0.479
Mof_H 	H 	0.994	0.3678	0.9922	0.073
Mof_H 	H 	0.438	0.6523	0.0957	0.111
Mof_H 	H 	0.3752	0.4964	0.2514	-0.014
Mof_H 	H 	0.6382	0.3678	0.0078	0.327
Mof_H 	H 	0.703	0.337	0.983	-0.286
Mof_H 	H 	0.256	0.5078	0.1322	0.187
Mof_H 	H 	0.3734	0.5036	0.2514	-0.016
Mof_H 	H 	0.4663	0.3477	0.0957	0.12
Mof_H 	H 	0.547	0.517	0.163	-0.199
Mof_H 	H 	0.6118	0.4922	0.1322	0.261
Mof_H 	H 	0.0138	0.6322	0.9922	0.512
Mof_H 	H 	0.936	0.517	0.837	0.334
Mof_H 	H 	0.8766	0.2486	0.9964	0.043
Mof_H 	H 	0.7837	0.4043	0.1523	0.132
Mof_H 	H 	0.96	0.337	0.017	0.089
Mof_H 	H 	0.186	0.3477	0.9043	0.034
Mof_H 	H 	0.023	0.663	0.017	-0.422
Mof_H 	H 	0.127	0.7514	0.9964	-0.007
Mof_H 	H 	0.314	0.663	0.983	-0.141
Mof_H 	H 	0.1216	0.7514	0.0036	-0.044
Mof_H 	H 	0.3403	0.5957	0.8477	0.176
Mof_H 	H 	0.896	0.4922	0.8678	-0.191
Mof_H 	H 	0.29	0.483	0.163	-0.134
Mof_H 	H 	0.9097	0.6523	0.9043	0.32
Mof_H 	H 	0.2362	0.5078	0.8678	0.484
Mof_H 	H 	0.123	0.5036	0.7486	-0.006
Mof_C 	C 	0.5313	0.3917	0.0877	-0.365
Mof_C 	C 	0.0107	0.6083	0.9123	-0.822
Mof_C 	C 	0.124	0.672	0.972	0.371
Mof_C 	C 	0.904	0.328	0.972	-0.193
Mof_C 	C 	0.046	0.472	0.828	-0.366
Mof_C 	C 	0.346	0.528	0.172	0.096
Mof_C 	C 	0.482	0.472	0.172	0.203
Mof_C 	C 	0.869	0.4123	0.8917	0.172
Mof_C 	C 	0.077	0.3917	0.9123	-0.085
Mof_C 	C 	0.381	0.6083	0.0877	-0.246
Mof_C 	C 	0.173	0.5877	0.1083	-0.267
Mof_C 	C 	0.768	0.328	0.028	0.268
Mof_C 	C 	0.204	0.672	0.028	0.116
Mof_C 	C 	0.7187	0.4123	0.1083	-0.334
Mof_C 	C 	0.126	0.528	0.828	0.611
Mof_C 	C 	0.2393	0.5877	0.8917	-0.56
_end
