# CIF file generated by openbabel 2.4.1, see http://openbabel.sf.net
data_I
_chemical_name_common 'image0'
_cell_length_a 17.298
_cell_length_b 13.402
_cell_length_c 18.056
_cell_angle_alpha 90
_cell_angle_beta 96.196
_cell_angle_gamma 90
_space_group_name_H-M_alt 'P 1'
_space_group_name_Hall 'P 1'
loop_
    _symmetry_equiv_pos_as_xyz
    x,y,z
loop_
    _atom_site_label
    _atom_site_type_symbol
    _atom_site_fract_x
    _atom_site_fract_y
    _atom_site_fract_z
    _atom_site_occupancy
    Ni1     Ni   0.04044   0.30594   0.16562   1.000
    C1      C    0.83190   0.96700   0.08170   1.000
    C2      C    0.76100   0.94540   0.10710   1.000
    H1      H    0.73020   0.89460   0.08470   1.000
    C3      C    0.73490   0.99940   0.16630   1.000
    C4      C    0.77890   0.07820   0.19780   1.000
    H2      H    0.76210   0.11410   0.23710   1.000
    C5      C    0.84930   0.10320   0.16960   1.000
    C6      C    0.87400   0.04860   0.11300   1.000
    H3      H    0.92030   0.06610   0.09460   1.000
    C7      C    0.85980   0.90540   0.01990   1.000
    C8      C    0.80947   0.86650   0.96180   1.000
    H4      H    0.75670   0.88170   0.95820   1.000
    C9      C    0.83800   0.80490   0.90910   1.000
    H5      H    0.80440   0.77890   0.87030   1.000
    N1      N    0.91680   0.78230   0.91450   1.000
    C10     C    0.96711   0.82120   0.97260   1.000
    H6      H    0.01980   0.80600   0.97620   1.000
    C11     C    0.93860   0.88270   0.02530   1.000
    H7      H    0.97220   0.90880   0.06420   1.000
    C12     C    0.65850   0.96830   0.19180   1.000
    C13     C    0.90040   0.18720   0.20280   1.000
    O1      O    0.62180   0.90560   0.14971   1.000
    O2      O    0.63674   0.00240   0.24990   1.000
    O3      O    0.95715   0.20490   0.16760   1.000
    O4      O    0.88291   0.23140   0.25860   1.000
    H8      H    0.02880   0.44670   0.24180   1.000
    C14     C    0.86780   0.89980   0.03380   1.000
    C15     C    0.86970   0.79650   0.04090   1.000
    H9      H    0.85480   0.76660   0.08360   1.000
    C16     C    0.89390   0.73800   0.98410   1.000
    H10     H    0.89510   0.66890   0.98890   1.000
    N2      N    0.91620   0.78280   0.92030   1.000
    C17     C    0.91430   0.88610   0.91320   1.000
    H11     H    0.92920   0.91600   0.87050   1.000
    C18     C    0.89010   0.94460   0.97000   1.000
    H12     H    0.88880   0.01370   0.96520   1.000
    H13     H    0.97850   0.41040   0.28910   1.000
    Ni2     Ni   0.54044   0.80594   0.16562   1.000
    C19     C    0.33190   0.46700   0.08170   1.000
    C20     C    0.26100   0.44540   0.10710   1.000
    H14     H    0.23020   0.39460   0.08470   1.000
    C21     C    0.23490   0.49940   0.16630   1.000
    C22     C    0.27890   0.57820   0.19780   1.000
    H15     H    0.26210   0.61410   0.23710   1.000
    C23     C    0.34930   0.60320   0.16960   1.000
    C24     C    0.37400   0.54860   0.11300   1.000
    H16     H    0.42030   0.56610   0.09460   1.000
    C25     C    0.35980   0.40540   0.01990   1.000
    C26     C    0.30947   0.36650   0.96180   1.000
    H17     H    0.25670   0.38170   0.95820   1.000
    C27     C    0.33800   0.30490   0.90910   1.000
    H18     H    0.30440   0.27890   0.87030   1.000
    N3      N    0.41680   0.28230   0.91450   1.000
    C28     C    0.46711   0.32120   0.97260   1.000
    H19     H    0.51980   0.30600   0.97620   1.000
    C29     C    0.43860   0.38270   0.02530   1.000
    H20     H    0.47220   0.40880   0.06420   1.000
    C30     C    0.15850   0.46830   0.19180   1.000
    C31     C    0.40040   0.68720   0.20280   1.000
    O5      O    0.12180   0.40560   0.14971   1.000
    O6      O    0.13674   0.50240   0.24990   1.000
    O7      O    0.45715   0.70490   0.16760   1.000
    O8      O    0.38291   0.73140   0.25860   1.000
    H21     H    0.52880   0.94670   0.24180   1.000
    C32     C    0.36780   0.39980   0.03380   1.000
    C33     C    0.36970   0.29650   0.04090   1.000
    H22     H    0.35480   0.26660   0.08360   1.000
    C34     C    0.39390   0.23800   0.98410   1.000
    H23     H    0.39510   0.16890   0.98890   1.000
    N4      N    0.41620   0.28280   0.92030   1.000
    C35     C    0.41430   0.38610   0.91320   1.000
    H24     H    0.42920   0.41600   0.87050   1.000
    C36     C    0.39010   0.44460   0.97000   1.000
    H25     H    0.38880   0.51370   0.96520   1.000
    H26     H    0.47850   0.91040   0.28910   1.000
    Ni3     Ni   0.95956   0.30594   0.33438   1.000
    C37     C    0.16810   0.96700   0.41830   1.000
    C38     C    0.23900   0.94540   0.39290   1.000
    H27     H    0.26980   0.89460   0.41530   1.000
    C39     C    0.26510   0.99940   0.33370   1.000
    C40     C    0.22110   0.07820   0.30220   1.000
    H28     H    0.23790   0.11410   0.26290   1.000
    C41     C    0.15070   0.10320   0.33040   1.000
    C42     C    0.12600   0.04860   0.38700   1.000
    H29     H    0.07970   0.06610   0.40540   1.000
    C43     C    0.14020   0.90540   0.48010   1.000
    C44     C    0.19053   0.86650   0.53820   1.000
    H30     H    0.24330   0.88170   0.54180   1.000
    C45     C    0.16200   0.80490   0.59090   1.000
    H31     H    0.19560   0.77890   0.62970   1.000
    N5      N    0.08320   0.78230   0.58550   1.000
    C46     C    0.03289   0.82120   0.52740   1.000
    H32     H    0.98020   0.80600   0.52380   1.000
    C47     C    0.06140   0.88270   0.47470   1.000
    H33     H    0.02780   0.90880   0.43580   1.000
    C48     C    0.34150   0.96830   0.30820   1.000
    C49     C    0.09960   0.18720   0.29720   1.000
    O9      O    0.37820   0.90560   0.35029   1.000
    O10     O    0.36326   0.00240   0.25010   1.000
    O11     O    0.04285   0.20490   0.33240   1.000
    O12     O    0.11709   0.23140   0.24140   1.000
    H34     H    0.97120   0.44670   0.25820   1.000
    C50     C    0.13220   0.89980   0.46620   1.000
    C51     C    0.13030   0.79650   0.45910   1.000
    H35     H    0.14520   0.76660   0.41640   1.000
    C52     C    0.10610   0.73800   0.51590   1.000
    H36     H    0.10490   0.66890   0.51110   1.000
    N6      N    0.08380   0.78280   0.57970   1.000
    C53     C    0.08570   0.88610   0.58680   1.000
    H37     H    0.07080   0.91600   0.62950   1.000
    C54     C    0.10990   0.94460   0.53000   1.000
    H38     H    0.11120   0.01370   0.53480   1.000
    H39     H    0.02150   0.41040   0.21090   1.000
    Ni4     Ni   0.45956   0.80594   0.33438   1.000
    C55     C    0.66810   0.46700   0.41830   1.000
    C56     C    0.73900   0.44540   0.39290   1.000
    H40     H    0.76980   0.39460   0.41530   1.000
    C57     C    0.76510   0.49940   0.33370   1.000
    C58     C    0.72110   0.57820   0.30220   1.000
    H41     H    0.73790   0.61410   0.26290   1.000
    C59     C    0.65070   0.60320   0.33040   1.000
    C60     C    0.62600   0.54860   0.38700   1.000
    H42     H    0.57970   0.56610   0.40540   1.000
    C61     C    0.64020   0.40540   0.48010   1.000
    C62     C    0.69053   0.36650   0.53820   1.000
    H43     H    0.74330   0.38170   0.54180   1.000
    C63     C    0.66200   0.30490   0.59090   1.000
    H44     H    0.69560   0.27890   0.62970   1.000
    N7      N    0.58320   0.28230   0.58550   1.000
    C64     C    0.53289   0.32120   0.52740   1.000
    H45     H    0.48020   0.30600   0.52380   1.000
    C65     C    0.56140   0.38270   0.47470   1.000
    H46     H    0.52780   0.40880   0.43580   1.000
    C66     C    0.84150   0.46830   0.30820   1.000
    C67     C    0.59960   0.68720   0.29720   1.000
    O13     O    0.87820   0.40560   0.35029   1.000
    O14     O    0.86326   0.50240   0.25010   1.000
    O15     O    0.54285   0.70490   0.33240   1.000
    O16     O    0.61709   0.73140   0.24140   1.000
    H47     H    0.47120   0.94670   0.25820   1.000
    C68     C    0.63220   0.39980   0.46620   1.000
    C69     C    0.63030   0.29650   0.45910   1.000
    H48     H    0.64520   0.26660   0.41640   1.000
    C70     C    0.60610   0.23800   0.51590   1.000
    H49     H    0.60490   0.16890   0.51110   1.000
    N8      N    0.58380   0.28280   0.57970   1.000
    C71     C    0.58570   0.38610   0.58680   1.000
    H50     H    0.57080   0.41600   0.62950   1.000
    C72     C    0.60990   0.44460   0.53000   1.000
    H51     H    0.61120   0.51370   0.53480   1.000
    H52     H    0.52150   0.91040   0.21090   1.000
    Ni5     Ni   0.95956   0.69406   0.83438   1.000
    C73     C    0.16810   0.03300   0.91830   1.000
    C74     C    0.23900   0.05460   0.89290   1.000
    H53     H    0.26980   0.10540   0.91530   1.000
    C75     C    0.26510   0.00060   0.83370   1.000
    C76     C    0.22110   0.92180   0.80220   1.000
    H54     H    0.23790   0.88590   0.76290   1.000
    C77     C    0.15070   0.89680   0.83040   1.000
    C78     C    0.12600   0.95140   0.88700   1.000
    H55     H    0.07970   0.93390   0.90540   1.000
    C79     C    0.14020   0.09460   0.98010   1.000
    C80     C    0.19053   0.13350   0.03820   1.000
    H56     H    0.24330   0.11830   0.04180   1.000
    C81     C    0.16200   0.19510   0.09090   1.000
    H57     H    0.19560   0.22110   0.12970   1.000
    N9      N    0.08320   0.21770   0.08550   1.000
    C82     C    0.03289   0.17880   0.02740   1.000
    H58     H    0.98020   0.19400   0.02380   1.000
    C83     C    0.06140   0.11730   0.97470   1.000
    H59     H    0.02780   0.09120   0.93580   1.000
    C84     C    0.34150   0.03170   0.80820   1.000
    C85     C    0.09960   0.81280   0.79720   1.000
    O17     O    0.37820   0.09440   0.85029   1.000
    O18     O    0.36326   0.99760   0.75010   1.000
    O19     O    0.04285   0.79510   0.83240   1.000
    O20     O    0.11709   0.76860   0.74140   1.000
    H60     H    0.97120   0.55330   0.75820   1.000
    C86     C    0.13220   0.10020   0.96620   1.000
    C87     C    0.13030   0.20350   0.95910   1.000
    H61     H    0.14520   0.23340   0.91640   1.000
    C88     C    0.10610   0.26200   0.01590   1.000
    H62     H    0.10490   0.33110   0.01110   1.000
    N10     N    0.08380   0.21720   0.07970   1.000
    C89     C    0.08570   0.11390   0.08680   1.000
    H63     H    0.07080   0.08400   0.12950   1.000
    C90     C    0.10990   0.05540   0.03000   1.000
    H64     H    0.11120   0.98630   0.03480   1.000
    H65     H    0.02150   0.58960   0.71090   1.000
    Ni6     Ni   0.45956   0.19406   0.83438   1.000
    C91     C    0.66810   0.53300   0.91830   1.000
    C92     C    0.73900   0.55460   0.89290   1.000
    H66     H    0.76980   0.60540   0.91530   1.000
    C93     C    0.76510   0.50060   0.83370   1.000
    C94     C    0.72110   0.42180   0.80220   1.000
    H67     H    0.73790   0.38590   0.76290   1.000
    C95     C    0.65070   0.39680   0.83040   1.000
    C96     C    0.62600   0.45140   0.88700   1.000
    H68     H    0.57970   0.43390   0.90540   1.000
    C97     C    0.64020   0.59460   0.98010   1.000
    C98     C    0.69053   0.63350   0.03820   1.000
    H69     H    0.74330   0.61830   0.04180   1.000
    C99     C    0.66200   0.69510   0.09090   1.000
    H70     H    0.69560   0.72110   0.12970   1.000
    N11     N    0.58320   0.71770   0.08550   1.000
    C100    C    0.53289   0.67880   0.02740   1.000
    H71     H    0.48020   0.69400   0.02380   1.000
    C101    C    0.56140   0.61730   0.97470   1.000
    H72     H    0.52780   0.59120   0.93580   1.000
    C102    C    0.84150   0.53170   0.80820   1.000
    C103    C    0.59960   0.31280   0.79720   1.000
    O21     O    0.87820   0.59440   0.85029   1.000
    O22     O    0.86326   0.49760   0.75010   1.000
    O23     O    0.54285   0.29510   0.83240   1.000
    O24     O    0.61709   0.26860   0.74140   1.000
    H73     H    0.47120   0.05330   0.75820   1.000
    C104    C    0.63220   0.60020   0.96620   1.000
    C105    C    0.63030   0.70350   0.95910   1.000
    H74     H    0.64520   0.73340   0.91640   1.000
    C106    C    0.60610   0.76200   0.01590   1.000
    H75     H    0.60490   0.83110   0.01110   1.000
    N12     N    0.58380   0.71720   0.07970   1.000
    C107    C    0.58570   0.61390   0.08680   1.000
    H76     H    0.57080   0.58400   0.12950   1.000
    C108    C    0.60990   0.55540   0.03000   1.000
    H77     H    0.61120   0.48630   0.03480   1.000
    H78     H    0.52150   0.08960   0.71090   1.000
    Ni7     Ni   0.04044   0.69406   0.66562   1.000
    C109    C    0.83190   0.03300   0.58170   1.000
    C110    C    0.76100   0.05460   0.60710   1.000
    H79     H    0.73020   0.10540   0.58470   1.000
    C111    C    0.73490   0.00060   0.66630   1.000
    C112    C    0.77890   0.92180   0.69780   1.000
    H80     H    0.76210   0.88590   0.73710   1.000
    C113    C    0.84930   0.89680   0.66960   1.000
    C114    C    0.87400   0.95140   0.61300   1.000
    H81     H    0.92030   0.93390   0.59460   1.000
    C115    C    0.85980   0.09460   0.51990   1.000
    C116    C    0.80947   0.13350   0.46180   1.000
    H82     H    0.75670   0.11830   0.45820   1.000
    C117    C    0.83800   0.19510   0.40910   1.000
    H83     H    0.80440   0.22110   0.37030   1.000
    N13     N    0.91680   0.21770   0.41450   1.000
    C118    C    0.96711   0.17880   0.47260   1.000
    H84     H    0.01980   0.19400   0.47620   1.000
    C119    C    0.93860   0.11730   0.52530   1.000
    H85     H    0.97220   0.09120   0.56420   1.000
    C120    C    0.65850   0.03170   0.69180   1.000
    C121    C    0.90040   0.81280   0.70280   1.000
    O25     O    0.62180   0.09440   0.64971   1.000
    O26     O    0.63674   0.99760   0.74990   1.000
    O27     O    0.95715   0.79510   0.66760   1.000
    O28     O    0.88291   0.76860   0.75860   1.000
    H86     H    0.02880   0.55330   0.74180   1.000
    C122    C    0.86780   0.10020   0.53380   1.000
    C123    C    0.86970   0.20350   0.54090   1.000
    H87     H    0.85480   0.23340   0.58360   1.000
    C124    C    0.89390   0.26200   0.48410   1.000
    H88     H    0.89510   0.33110   0.48890   1.000
    N14     N    0.91620   0.21720   0.42030   1.000
    C125    C    0.91430   0.11390   0.41320   1.000
    H89     H    0.92920   0.08400   0.37050   1.000
    C126    C    0.89010   0.05540   0.47000   1.000
    H90     H    0.88880   0.98630   0.46520   1.000
    H91     H    0.97850   0.58960   0.78910   1.000
    Ni8     Ni   0.54044   0.19406   0.66562   1.000
    C127    C    0.33190   0.53300   0.58170   1.000
    C128    C    0.26100   0.55460   0.60710   1.000
    H92     H    0.23020   0.60540   0.58470   1.000
    C129    C    0.23490   0.50060   0.66630   1.000
    C130    C    0.27890   0.42180   0.69780   1.000
    H93     H    0.26210   0.38590   0.73710   1.000
    C131    C    0.34930   0.39680   0.66960   1.000
    C132    C    0.37400   0.45140   0.61300   1.000
    H94     H    0.42030   0.43390   0.59460   1.000
    C133    C    0.35980   0.59460   0.51990   1.000
    C134    C    0.30947   0.63350   0.46180   1.000
    H95     H    0.25670   0.61830   0.45820   1.000
    C135    C    0.33800   0.69510   0.40910   1.000
    H96     H    0.30440   0.72110   0.37030   1.000
    N15     N    0.41680   0.71770   0.41450   1.000
    C136    C    0.46711   0.67880   0.47260   1.000
    H97     H    0.51980   0.69400   0.47620   1.000
    C137    C    0.43860   0.61730   0.52530   1.000
    H98     H    0.47220   0.59120   0.56420   1.000
    C138    C    0.15850   0.53170   0.69180   1.000
    C139    C    0.40040   0.31280   0.70280   1.000
    O29     O    0.12180   0.59440   0.64971   1.000
    O30     O    0.13674   0.49760   0.74990   1.000
    O31     O    0.45715   0.29510   0.66760   1.000
    O32     O    0.38291   0.26860   0.75860   1.000
    H99     H    0.52880   0.05330   0.74180   1.000
    C140    C    0.36780   0.60020   0.53380   1.000
    C141    C    0.36970   0.70350   0.54090   1.000
    H100    H    0.35480   0.73340   0.58360   1.000
    C142    C    0.39390   0.76200   0.48410   1.000
    H101    H    0.39510   0.83110   0.48890   1.000
    N16     N    0.41620   0.71720   0.42030   1.000
    C143    C    0.41430   0.61390   0.41320   1.000
    H102    H    0.42920   0.58400   0.37050   1.000
    C144    C    0.39010   0.55540   0.47000   1.000
    H103    H    0.38880   0.48630   0.46520   1.000
    H104    H    0.47850   0.08960   0.78910   1.000
    O33     O    0.00000   0.39750   0.25000   1.000
    O34     O    0.50000   0.89750   0.25000   1.000
    O35     O    0.00000   0.60250   0.75000   1.000
    O36     O    0.50000   0.10250   0.75000   1.000
