data_functionalizedCrystal
_audit_creation_method	'EQeq! by Chris Wilmer'
_symmetry_space_group_name_H-M	'P1'
_symmetry_Int_Tables_number	1
_symmetry_cell_setting	triclinic
loop_
_symmetry_equiv_pos_as_xyz
  x,y,z
_cell_length_a	12.34
_cell_length_b	12.34
_cell_length_c	22.852
_cell_angle_alpha	90
_cell_angle_beta	90
_cell_angle_gamma	90
loop_
_atom_site_label
_atom_site_type_symbol
_atom_site_fract_x
_atom_site_fract_y
_atom_site_fract_z
_atom_site_charge
Mof_C 	C 	0.4767	0.4112	0.3742	0.043
Mof_H 	H 	0.461	0.3469	0.3953	0.008
Mof_C 	C 	0.4741	0.4073	0.3143	-0.09
Mof_H 	H 	0.4549	0.3422	0.2948	0.052
Mof_C 	C 	0.9767	0.9112	0.8742	0.056
Mof_H 	H 	0.961	0.8469	0.8953	0.013
Mof_C 	C 	0.9741	0.9073	0.8143	-0.067
Mof_H 	H 	0.9549	0.8422	0.7948	0.051
Mof_C 	C 	0.5233	0.5888	0.3742	0.045
Mof_H 	H 	0.539	0.6531	0.3953	0.01
Mof_C 	C 	0.5259	0.5927	0.3143	-0.09
Mof_H 	H 	0.5451	0.6578	0.2948	0.054
Mof_C 	C 	0.0233	0.0888	0.8742	0.031
Mof_H 	H 	0.039	0.1531	0.8953	0.013
Mof_C 	C 	0.0259	0.0927	0.8143	-0.089
Mof_H 	H 	0.0451	0.1578	0.7948	0.05
Mof_C 	C 	0.5888	0.4767	0.3742	0.045
Mof_H 	H 	0.6531	0.461	0.3953	0.009
Mof_C 	C 	0.5927	0.4741	0.3143	-0.09
Mof_H 	H 	0.6578	0.4549	0.2948	0.054
Mof_C 	C 	0.0888	0.9767	0.8742	0.049
Mof_H 	H 	0.1531	0.961	0.8953	0.014
Mof_C 	C 	0.0927	0.9741	0.8143	-0.076
Mof_H 	H 	0.1578	0.9549	0.7948	0.053
Mof_C 	C 	0.4112	0.5233	0.3742	0.044
Mof_H 	H 	0.3469	0.539	0.3953	0.009
Mof_C 	C 	0.4073	0.5259	0.3143	-0.09
Mof_H 	H 	0.3422	0.5451	0.2948	0.053
Mof_C 	C 	0.9112	0.0233	0.8742	0.048
Mof_H 	H 	0.8469	0.039	0.8953	0.01
Mof_C 	C 	0.9073	0.0259	0.8143	-0.077
Mof_H 	H 	0.8422	0.0451	0.7948	0.049
Mof_C 	C 	0.5233	0.4112	0.1258	0.044
Mof_H 	H 	0.539	0.3469	0.1047	0.009
Mof_C 	C 	0.5259	0.4073	0.1857	-0.09
Mof_H 	H 	0.5451	0.3422	0.2052	0.053
Mof_C 	C 	0.0233	0.9112	0.6258	0.048
Mof_H 	H 	0.039	0.8469	0.6047	0.007
Mof_C 	C 	0.0259	0.9073	0.6857	-0.078
Mof_H 	H 	0.0451	0.8422	0.7052	0.049
Mof_C 	C 	0.4767	0.5888	0.1258	0.045
Mof_H 	H 	0.461	0.6531	0.1047	0.01
Mof_C 	C 	0.4741	0.5927	0.1857	-0.09
Mof_H 	H 	0.4549	0.6578	0.2052	0.054
Mof_C 	C 	0.9767	0.0888	0.6258	0.049
Mof_H 	H 	0.961	0.1531	0.6047	0.011
Mof_C 	C 	0.9741	0.0927	0.6857	-0.077
Mof_H 	H 	0.9549	0.1578	0.7052	0.053
Mof_C 	C 	0.4112	0.4767	0.1258	0.044
Mof_H 	H 	0.3469	0.461	0.1047	0.009
Mof_C 	C 	0.4073	0.4741	0.1857	-0.09
Mof_H 	H 	0.3422	0.4549	0.2052	0.052
Mof_C 	C 	0.9112	0.9767	0.6258	0.058
Mof_H 	H 	0.8469	0.961	0.6047	0.01
Mof_C 	C 	0.9073	0.9741	0.6857	-0.068
Mof_H 	H 	0.8422	0.9549	0.7052	0.051
Mof_C 	C 	0.5888	0.5233	0.1258	0.045
Mof_H 	H 	0.6531	0.539	0.1047	0.01
Mof_C 	C 	0.5927	0.5259	0.1857	-0.09
Mof_H 	H 	0.6578	0.5451	0.2052	0.054
Mof_C 	C 	0.0888	0.0233	0.6258	0.031
Mof_H 	H 	0.1531	0.039	0.6047	0.01
Mof_C 	C 	0.0927	0.0259	0.6857	-0.09
Mof_H 	H 	0.1578	0.0451	0.7052	0.05
Mof_C 	C 	0.5233	0.5888	0.6258	0.045
Mof_H 	H 	0.539	0.6531	0.6047	0.01
Mof_C 	C 	0.5259	0.5927	0.6857	-0.09
Mof_H 	H 	0.5451	0.6578	0.7052	0.055
Mof_C 	C 	0.0233	0.0888	0.1258	0.031
Mof_H 	H 	0.039	0.1531	0.1047	0.011
Mof_C 	C 	0.0259	0.0927	0.1857	-0.089
Mof_H 	H 	0.0451	0.1578	0.2052	0.049
Mof_C 	C 	0.4767	0.4112	0.6258	0.044
Mof_H 	H 	0.461	0.3469	0.6047	0.009
Mof_C 	C 	0.4741	0.4073	0.6857	-0.091
Mof_H 	H 	0.4549	0.3422	0.7052	0.053
Mof_C 	C 	0.9767	0.9112	0.1258	0.058
Mof_H 	H 	0.961	0.8469	0.1047	0.01
Mof_C 	C 	0.9741	0.9073	0.1857	-0.066
Mof_H 	H 	0.9549	0.8422	0.2052	0.051
Mof_C 	C 	0.4112	0.5233	0.6258	0.045
Mof_H 	H 	0.3469	0.539	0.6047	0.009
Mof_C 	C 	0.4073	0.5259	0.6857	-0.09
Mof_H 	H 	0.3422	0.5451	0.7052	0.053
Mof_C 	C 	0.9112	0.0233	0.1258	0.048
Mof_H 	H 	0.8469	0.039	0.1047	0.008
Mof_C 	C 	0.9073	0.0259	0.1857	-0.077
Mof_H 	H 	0.8422	0.0451	0.2052	0.048
Mof_C 	C 	0.5888	0.4767	0.6258	0.045
Mof_H 	H 	0.6531	0.461	0.6047	0.009
Mof_C 	C 	0.5927	0.4741	0.6857	-0.091
Mof_H 	H 	0.6578	0.4549	0.7052	0.054
Mof_C 	C 	0.0888	0.9767	0.1258	0.049
Mof_H 	H 	0.1531	0.961	0.1047	0.011
Mof_C 	C 	0.0927	0.9741	0.1857	-0.076
Mof_H 	H 	0.1578	0.9549	0.2052	0.053
Mof_C 	C 	0.4767	0.5888	0.8742	0.044
Mof_H 	H 	0.461	0.6531	0.8953	0.012
Mof_C 	C 	0.4741	0.5927	0.8143	-0.09
Mof_H 	H 	0.4549	0.6578	0.7948	0.054
Mof_C 	C 	0.9767	0.0888	0.3742	0.049
Mof_H 	H 	0.961	0.1531	0.3953	0.011
Mof_C 	C 	0.9741	0.0927	0.3143	-0.076
Mof_H 	H 	0.9549	0.1578	0.2948	0.053
Mof_C 	C 	0.5233	0.4112	0.8742	0.044
Mof_H 	H 	0.539	0.3469	0.8953	0.012
Mof_C 	C 	0.5259	0.4073	0.8143	-0.089
Mof_H 	H 	0.5451	0.3422	0.7948	0.053
Mof_C 	C 	0.0233	0.9112	0.3742	0.048
Mof_H 	H 	0.039	0.8469	0.3953	0.007
Mof_C 	C 	0.0259	0.9073	0.3143	-0.078
Mof_H 	H 	0.0451	0.8422	0.2948	0.048
Mof_C 	C 	0.5888	0.5233	0.8742	0.045
Mof_H 	H 	0.6531	0.539	0.8953	0.012
Mof_C 	C 	0.5927	0.5259	0.8143	-0.09
Mof_H 	H 	0.6578	0.5451	0.7948	0.055
Mof_C 	C 	0.0888	0.0233	0.3742	0.031
Mof_H 	H 	0.1531	0.039	0.3953	0.01
Mof_C 	C 	0.0927	0.0259	0.3143	-0.09
Mof_H 	H 	0.1578	0.0451	0.2948	0.05
Mof_C 	C 	0.4112	0.4767	0.8742	0.044
Mof_H 	H 	0.3469	0.461	0.8953	0.011
Mof_C 	C 	0.4073	0.4741	0.8143	-0.09
Mof_H 	H 	0.3422	0.4549	0.7948	0.053
Mof_C 	C 	0.9112	0.9767	0.3742	0.057
Mof_H 	H 	0.8469	0.961	0.3953	0.01
Mof_C 	C 	0.9073	0.9741	0.3143	-0.066
Mof_H 	H 	0.8422	0.9549	0.2948	0.051
Mof_Fe	Fe	0.5	0.5	0.5	0.662
Mof_Fe	Fe	-0	0	-0	0.629
Mof_Fe	Fe	0.5	0.5	-0	0.658
Mof_Fe	Fe	3.47169e-33	0	0.5	0.634
Mof_N 	N 	0.6388	0.6023	0.5	-0.207
Mof_C 	C 	0.7259	0.6356	0.5	0.125
Mof_C 	C 	0.0291	0.6078	0.5	-0.112
Mof_H 	H 	0.05	0.6819	0.5	0.066
Mof_N 	N 	0.1388	0.1023	-0	-0.205
Mof_C 	C 	0.2259	0.1356	-0	0.109
Mof_C 	C 	0.5291	0.1078	-0	-0.039
Mof_H 	H 	0.55	0.1819	-0	0.043
Mof_N 	N 	0.3612	0.3977	0.5	-0.204
Mof_C 	C 	0.2741	0.3644	0.5	0.116
Mof_C 	C 	0.9709	0.3922	0.5	-0.028
Mof_H 	H 	0.95	0.3181	0.5	0.044
Mof_N 	N 	0.8612	0.8977	-0	-0.197
Mof_C 	C 	0.7741	0.8644	-0	0.127
Mof_C 	C 	0.4709	0.8922	-0	-0.102
Mof_H 	H 	0.45	0.8181	-0	0.064
Mof_N 	N 	0.3977	0.6388	0.5	-0.206
Mof_C 	C 	0.3644	0.7259	0.5	0.125
Mof_C 	C 	0.3922	0.0291	0.5	-0.112
Mof_H 	H 	0.3181	0.05	0.5	0.065
Mof_N 	N 	0.8977	0.1388	-0	-0.201
Mof_C 	C 	0.8644	0.2259	-0	0.127
Mof_C 	C 	0.8922	0.5291	-0	-0.101
Mof_H 	H 	0.8181	0.55	-0	0.065
Mof_N 	N 	0.6023	0.3612	0.5	-0.204
Mof_C 	C 	0.6356	0.2741	0.5	0.116
Mof_C 	C 	0.6078	0.9709	0.5	-0.028
Mof_H 	H 	0.6819	0.95	0.5	0.044
Mof_N 	N 	0.1023	0.8612	-0	-0.2
Mof_C 	C 	0.1356	0.7741	-0	0.111
Mof_C 	C 	0.1078	0.4709	-0	-0.039
Mof_H 	H 	0.1819	0.45	-0	0.043
Mof_N 	N 	0.3612	0.6023	-0	-0.204
Mof_C 	C 	0.2741	0.6356	-0	0.114
Mof_C 	C 	0.9709	0.6078	-0	-0.027
Mof_H 	H 	0.95	0.6819	-0	0.043
Mof_N 	N 	0.8612	0.1023	0.5	-0.2
Mof_C 	C 	0.7741	0.1356	0.5	0.112
Mof_C 	C 	0.4709	0.1078	0.5	-0.04
Mof_H 	H 	0.45	0.1819	0.5	0.044
Mof_N 	N 	0.6388	0.3977	-0	-0.207
Mof_C 	C 	0.7259	0.3644	-0	0.124
Mof_C 	C 	0.0291	0.3922	-0	-0.115
Mof_H 	H 	0.05	0.3181	-0	0.065
Mof_N 	N 	0.1388	0.8977	0.5	-0.201
Mof_C 	C 	0.2259	0.8644	0.5	0.128
Mof_C 	C 	0.5291	0.8922	0.5	-0.1
Mof_H 	H 	0.55	0.8181	0.5	0.065
Mof_N 	N 	0.6023	0.6388	-0	-0.207
Mof_C 	C 	0.6356	0.7259	-0	0.124
Mof_C 	C 	0.6078	0.0291	-0	-0.114
Mof_H 	H 	0.6819	0.05	-0	0.065
Mof_N 	N 	0.1023	0.1388	0.5	-0.204
Mof_C 	C 	0.1356	0.2259	0.5	0.111
Mof_C 	C 	0.1078	0.5291	0.5	-0.04
Mof_H 	H 	0.1819	0.55	0.5	0.044
Mof_N 	N 	0.3977	0.3612	-0	-0.204
Mof_C 	C 	0.3644	0.2741	-0	0.114
Mof_C 	C 	0.3922	0.9709	-0	-0.026
Mof_H 	H 	0.3181	0.95	-0	0.043
Mof_N 	N 	0.8977	0.8612	0.5	-0.197
Mof_C 	C 	0.8644	0.7741	0.5	0.128
Mof_C 	C 	0.8922	0.4709	0.5	-0.1
Mof_H 	H 	0.8181	0.45	0.5	0.065
Mof_C 	C 	0.8345	0.6655	0.5	-0.145
Mof_C 	C 	0.9187	0.5813	0.5	0.098
Mof_C 	C 	0.1655	0.3345	0.5	-0.123
Mof_C 	C 	0.0813	0.4187	0.5	0.027
Mof_C 	C 	0.3345	0.8345	0.5	-0.146
Mof_C 	C 	0.4187	0.9187	0.5	0.099
Mof_C 	C 	0.6655	0.1655	0.5	-0.122
Mof_C 	C 	0.5813	0.0813	0.5	0.028
Mof_C 	C 	0.1655	0.6655	-0	-0.122
Mof_C 	C 	0.0813	0.5813	-0	0.025
Mof_C 	C 	0.8345	0.3345	-0	-0.146
Mof_C 	C 	0.9187	0.4187	-0	0.099
Mof_C 	C 	0.6655	0.8345	-0	-0.146
Mof_C 	C 	0.5813	0.9187	-0	0.099
Mof_C 	C 	0.3345	0.1655	-0	-0.122
Mof_C 	C 	0.4187	0.0813	-0	0.025
Mof_N 	N 	0.5	0.5	0.4041	-0.194
Mof_C 	C 	0.5	0.5	0.2824	0.069
Mof_N 	N 	6.27751e-33	0	0.9041	-0.204
Mof_C 	C 	1.99411e-32	1.45086e-32	0.7824	0.037
Mof_N 	N 	0.5	0.5	0.0959	-0.194
Mof_C 	C 	0.5	0.5	0.2176	0.069
Mof_N 	N 	4.13756e-33	0	0.5959	-0.208
Mof_C 	C 	4.98257e-33	0	0.7176	0.038
Mof_N 	N 	0.5	0.5	0.5959	-0.194
Mof_C 	C 	0.5	0.5	0.7176	0.07
Mof_N 	N 	2.47945e-33	1.81358e-33	0.0959	-0.208
Mof_C 	C 	1.51088e-33	0	0.2176	0.036
Mof_N 	N 	0.5	0.5	0.9041	-0.192
Mof_C 	C 	0.5	0.5	0.7824	0.068
Mof_N 	N 	2.80582e-33	0	0.4041	-0.208
Mof_C 	C 	-5.2935e-33	-3.62715e-33	0.2824	0.036
_end
