data_functionalizedCrystal
_audit_creation_method	'EQeq! by Chris Wilmer'
_symmetry_space_group_name_H-M	'P1'
_symmetry_Int_Tables_number	1
_symmetry_cell_setting	triclinic
loop_
_symmetry_equiv_pos_as_xyz
  x,y,z
_cell_length_a	8.875
_cell_length_b	13.843
_cell_length_c	21.934
_cell_angle_alpha	90
_cell_angle_beta	90
_cell_angle_gamma	90
loop_
_atom_site_label
_atom_site_type_symbol
_atom_site_fract_x
_atom_site_fract_y
_atom_site_fract_z
_atom_site_charge
Mof_Cd	Cd	0.75	0.6855	0.8693	0.377
Mof_Cd	Cd	0.25	0.1855	0.6307	0.377
Mof_Cd	Cd	0.25	0.3145	0.1307	0.377
Mof_Cd	Cd	0.75	0.8145	0.3693	0.377
Mof_Cd	Cd	0.25	0.5661	0.7272	0.277
Mof_Cd	Cd	0.25	0.6836	0.0236	0.272
Mof_Cd	Cd	0.75	0.0661	0.7728	0.276
Mof_Cd	Cd	0.75	0.1836	0.4764	0.272
Mof_Cd	Cd	0.75	0.4339	0.2728	0.277
Mof_Cd	Cd	0.75	0.3164	0.9764	0.272
Mof_Cd	Cd	0.25	0.9339	0.2272	0.276
Mof_Cd	Cd	0.25	0.8164	0.5236	0.272
Mof_C 	C 	0.05	0.709	0.969	-0.005
Mof_C 	C 	0.047	0.613	0.774	-0.003
Mof_C 	C 	0.95	0.209	0.531	-0.005
Mof_C 	C 	0.953	0.113	0.726	-0.004
Mof_C 	C 	0.55	0.291	0.031	-0.004
Mof_C 	C 	0.547	0.387	0.226	-0.003
Mof_C 	C 	0.45	0.791	0.469	-0.004
Mof_C 	C 	0.453	0.887	0.274	-0.003
Mof_C 	C 	0.95	0.291	0.031	-0.005
Mof_C 	C 	0.953	0.387	0.226	-0.003
Mof_C 	C 	0.05	0.791	0.469	-0.005
Mof_C 	C 	0.047	0.887	0.274	-0.004
Mof_C 	C 	0.45	0.709	0.969	-0.004
Mof_C 	C 	0.453	0.613	0.774	-0.003
Mof_C 	C 	0.55	0.209	0.531	-0.004
Mof_C 	C 	0.547	0.113	0.726	-0.003
Mof_C 	C 	0.75	0.458	0.934	-0.007
Mof_C 	C 	0.75	0.918	0.808	0.002
Mof_C 	C 	0.25	0.958	0.566	-0.008
Mof_C 	C 	0.25	0.418	0.692	0.001
Mof_C 	C 	0.25	0.542	0.066	-0.007
Mof_C 	C 	0.25	0.082	0.192	0.002
Mof_C 	C 	0.75	0.042	0.434	-0.008
Mof_C 	C 	0.75	0.582	0.308	0.001
Mof_C 	C 	0.25	0.783	0.111	-0.051
Mof_C 	C 	0.25	0.667	0.649	-0.067
Mof_C 	C 	0.75	0.283	0.389	-0.051
Mof_C 	C 	0.75	0.167	0.851	-0.067
Mof_C 	C 	0.75	0.217	0.889	-0.051
Mof_C 	C 	0.75	0.333	0.351	-0.067
Mof_C 	C 	0.25	0.717	0.611	-0.051
Mof_C 	C 	0.25	0.833	0.149	-0.067
Mof_N 	N 	0.954	0.718	0.9372	-0.131
Mof_N 	N 	0.944	0.64	0.797	-0.129
Mof_N 	N 	0.046	0.218	0.5628	-0.131
Mof_N 	N 	0.056	0.14	0.703	-0.128
Mof_N 	N 	0.454	0.282	0.0628	-0.132
Mof_N 	N 	0.444	0.36	0.203	-0.13
Mof_N 	N 	0.546	0.782	0.4372	-0.132
Mof_N 	N 	0.556	0.86	0.297	-0.13
Mof_N 	N 	0.046	0.282	0.0628	-0.131
Mof_N 	N 	0.056	0.36	0.203	-0.129
Mof_N 	N 	0.954	0.782	0.4372	-0.131
Mof_N 	N 	0.944	0.86	0.297	-0.128
Mof_N 	N 	0.546	0.718	0.9372	-0.132
Mof_N 	N 	0.556	0.64	0.797	-0.13
Mof_N 	N 	0.454	0.218	0.5628	-0.132
Mof_N 	N 	0.444	0.14	0.703	-0.13
Mof_N 	N 	0.75	0.528	0.908	-0.132
Mof_N 	N 	0.75	0.847	0.83	-0.133
Mof_N 	N 	0.25	0.028	0.592	-0.131
Mof_N 	N 	0.25	0.347	0.67	-0.133
Mof_N 	N 	0.25	0.472	0.092	-0.132
Mof_N 	N 	0.25	0.153	0.17	-0.133
Mof_N 	N 	0.75	0.972	0.408	-0.131
Mof_N 	N 	0.75	0.653	0.33	-0.133
_end
