data_functionalizedCrystal
_audit_creation_method	'EQeq! by Chris Wilmer'
_symmetry_space_group_name_H-M	'P1'
_symmetry_Int_Tables_number	1
_symmetry_cell_setting	triclinic
loop_
_symmetry_equiv_pos_as_xyz
  x,y,z
_cell_length_a	15.0666
_cell_length_b	15.7706
_cell_length_c	15.7706
_cell_angle_alpha	76.8103
_cell_angle_beta	61.4661
_cell_angle_gamma	61.4661
loop_
_atom_site_label
_atom_site_type_symbol
_atom_site_fract_x
_atom_site_fract_y
_atom_site_fract_z
_atom_site_charge
Mof_Zn	Zn	0.25	0	-0	1.22
Mof_Zn	Zn	0.75	0	-0	1.223
Mof_Si	Si	-0	0	-0	2.457
Mof_Si	Si	0.5	0	-0	2.803
Mof_H 	H 	0.2376	0.1679	0.0769	0.041
Mof_H 	H 	0.1548	0.3355	0.0795	0.081
Mof_H 	H 	0.4824	0.8321	0.9231	0.085
Mof_H 	H 	0.5698	0.6645	0.9205	0.084
Mof_H 	H 	0.3145	0.9231	0.1679	0.026
Mof_H 	H 	0.2343	0.9205	0.3355	0.123
Mof_H 	H 	0.4055	0.0769	0.8321	0.087
Mof_H 	H 	0.4903	0.0795	0.6645	0.077
Mof_H 	H 	0.0176	0.0769	0.1679	-0.027
Mof_H 	H 	0.9302	0.0795	0.3355	0.25
Mof_H 	H 	0.2624	0.9231	0.8321	0.085
Mof_H 	H 	0.3452	0.9205	0.6645	0.076
Mof_H 	H 	0.0945	0.1679	0.9231	0.037
Mof_H 	H 	0.0097	0.3355	0.9205	0.077
Mof_H 	H 	0.1855	0.8321	0.0769	0.071
Mof_H 	H 	0.2657	0.6645	0.0795	0.062
Mof_H 	H 	0.7624	0.8321	0.9231	0.096
Mof_H 	H 	0.8452	0.6645	0.9205	0.069
Mof_H 	H 	0.5176	0.1679	0.0769	0.051
Mof_H 	H 	0.4302	0.3355	0.0795	0.064
Mof_H 	H 	0.6855	0.0769	0.8321	0.108
Mof_H 	H 	0.7657	0.0795	0.6645	0.036
Mof_H 	H 	0.5945	0.9231	0.1679	0.055
Mof_H 	H 	0.5097	0.9205	0.3355	0.076
Mof_H 	H 	0.9824	0.9231	0.8321	0.145
Mof_H 	H 	0.0698	0.9205	0.6645	-0.056
Mof_H 	H 	0.7376	0.0769	0.1679	0.059
Mof_H 	H 	0.6548	0.0795	0.3355	0.075
Mof_H 	H 	0.9055	0.8321	0.0769	0.105
Mof_H 	H 	0.9903	0.6645	0.0795	0.074
Mof_H 	H 	0.8145	0.1679	0.9231	0.07
Mof_H 	H 	0.7343	0.3355	0.9205	0.085
Mof_C 	C 	0.1904	0.2026	0.045	0.066
Mof_C 	C 	0.1416	0.3024	0.0466	-0.143
Mof_C 	C 	0.438	0.7974	0.955	0.168
Mof_C 	C 	0.4906	0.6976	0.9534	0.037
Mof_C 	C 	0.2354	0.955	0.2026	0.255
Mof_C 	C 	0.1882	0.9534	0.3024	-0.115
Mof_C 	C 	0.393	0.045	0.7974	0.049
Mof_C 	C 	0.444	0.0466	0.6976	-0.073
Mof_C 	C 	0.062	0.045	0.2026	0.193
Mof_C 	C 	0.0094	0.0466	0.3024	-0.413
Mof_C 	C 	0.3096	0.955	0.7974	0.159
Mof_C 	C 	0.3584	0.9534	0.6976	0.034
Mof_C 	C 	0.107	0.2026	0.955	0.203
Mof_C 	C 	0.056	0.3024	0.9534	-0.019
Mof_C 	C 	0.2646	0.7974	0.045	0.047
Mof_C 	C 	0.3118	0.6976	0.0466	-0.076
Mof_C 	C 	0.8096	0.7974	0.955	0.13
Mof_C 	C 	0.8584	0.6976	0.9534	0.087
Mof_C 	C 	0.562	0.2026	0.045	0.043
Mof_C 	C 	0.5094	0.3024	0.0466	-0.078
Mof_C 	C 	0.7646	0.045	0.7974	-0.013
Mof_C 	C 	0.8118	0.0466	0.6976	0.057
Mof_C 	C 	0.607	0.955	0.2026	0.174
Mof_C 	C 	0.556	0.9534	0.3024	0.032
Mof_C 	C 	0.938	0.955	0.7974	0.034
Mof_C 	C 	0.9906	0.9534	0.6976	0.287
Mof_C 	C 	0.6904	0.045	0.2026	0.045
Mof_C 	C 	0.6416	0.0466	0.3024	-0.076
Mof_C 	C 	0.893	0.7974	0.045	0.028
Mof_C 	C 	0.944	0.6976	0.0466	-0.005
Mof_C 	C 	0.7354	0.2026	0.955	0.171
Mof_C 	C 	0.6882	0.3024	0.9534	0.04
Mof_C 	C 	0.0733	0.3534	-0	0.024
Mof_C 	C 	0.0209	0.4582	-0	-0.26
Mof_C 	C 	0.4267	0.6466	-0	-0.054
Mof_C 	C 	0.4791	0.5418	-0	-0.022
Mof_C 	C 	0.0733	0	0.3534	0.172
Mof_C 	C 	0.0209	-7.4974e-23	0.4582	-0.34
Mof_C 	C 	0.4267	-1.49948e-22	0.6466	-0.052
Mof_C 	C 	0.4791	0	0.5418	-0.021
Mof_C 	C 	0.9267	0.6466	-0	-0.138
Mof_C 	C 	0.9791	0.5418	-0	0.218
Mof_C 	C 	0.5733	0.3534	-0	-0.059
Mof_C 	C 	0.5209	0.4582	-0	-0.02
Mof_C 	C 	0.9267	-1.49948e-22	0.6466	-0.245
Mof_C 	C 	0.9791	0	0.5418	0.29
Mof_C 	C 	0.5733	0	0.3534	-0.057
Mof_C 	C 	0.5209	-7.4974e-23	0.4582	-0.021
Mof_N 	N 	0.1733	0.1534	-0	-0.299
Mof_N 	N 	0.3267	0.8466	-0	-0.24
Mof_N 	N 	0.1733	0	0.1534	-0.327
Mof_N 	N 	0.3267	-1.49948e-22	0.8466	-0.235
Mof_N 	N 	0.8267	0.8466	-0	-0.221
Mof_N 	N 	0.6733	0.1534	-0	-0.276
Mof_N 	N 	0.8267	-1.49948e-22	0.8466	-0.195
Mof_N 	N 	0.6733	0	0.1534	-0.278
Mof_F 	F 	0.1127	0	-0	-0.902
Mof_F 	F 	0.3873	0	-0	-0.932
Mof_F 	F 	0.8873	0	-0	-0.851
Mof_F 	F 	0.6127	0	-0	-0.929
Mof_F 	F 	0.9816	0.9353	0.1015	-0.547
Mof_F 	F 	0.0184	0.0647	0.8985	-0.666
Mof_F 	F 	0.0831	0.8985	0.9353	-0.567
Mof_F 	F 	0.9169	0.1015	0.0647	-0.652
Mof_F 	F 	0.4816	0.1015	0.9353	-0.641
Mof_F 	F 	0.5184	0.8985	0.0647	-0.684
Mof_F 	F 	0.5831	0.9353	0.8985	-0.593
Mof_F 	F 	0.4169	0.0647	0.1015	-0.758
_end
