# CIF file generated by openbabel 2.4.1, see http://openbabel.sf.net
data_I
_chemical_name_common 'image0'
_cell_length_a 16.8572
_cell_length_b 16.8572
_cell_length_c 11.9275
_cell_angle_alpha 90
_cell_angle_beta 90
_cell_angle_gamma 90
_space_group_name_H-M_alt 'P 1'
_space_group_name_Hall 'P 1'
loop_
    _symmetry_equiv_pos_as_xyz
    x,y,z
loop_
    _atom_site_label
    _atom_site_type_symbol
    _atom_site_fract_x
    _atom_site_fract_y
    _atom_site_fract_z
    _atom_site_occupancy
    O1      O    0.39380   0.51340   0.61800   1.000
    C1      C    0.29210   0.61360   0.73210   1.000
    H1      H    0.26810   0.57430   0.68610   1.000
    C2      C    0.24620   0.65920   0.80380   1.000
    H2      H    0.19060   0.65090   0.80780   1.000
    C3      C    0.31870   0.59170   0.79780   1.000
    H3      H    0.31160   0.53580   0.79700   1.000
    C4      C    0.27270   0.63880   0.86990   1.000
    H4      H    0.23490   0.61470   0.91810   1.000
    H5      H    0.20700   0.86490   0.74640   1.000
    H6      H    0.11490   0.87430   0.77650   1.000
    H7      H    0.14940   0.78950   0.74100   1.000
    O2      O    0.60620   0.48660   0.61800   1.000
    C5      C    0.70790   0.38640   0.73210   1.000
    H8      H    0.73190   0.42570   0.68610   1.000
    C6      C    0.75380   0.34080   0.80380   1.000
    H9      H    0.80940   0.34910   0.80780   1.000
    C7      C    0.68130   0.40830   0.79780   1.000
    H10     H    0.68840   0.46420   0.79700   1.000
    C8      C    0.72730   0.36120   0.86990   1.000
    H11     H    0.76510   0.38530   0.91810   1.000
    H12     H    0.79300   0.13510   0.74640   1.000
    H13     H    0.88510   0.12570   0.77650   1.000
    H14     H    0.85060   0.21050   0.74100   1.000
    O3      O    0.98660   0.89380   0.11800   1.000
    C9      C    0.88640   0.79210   0.23210   1.000
    H15     H    0.92570   0.76810   0.18610   1.000
    C10     C    0.84080   0.74620   0.30380   1.000
    H16     H    0.84910   0.69060   0.30780   1.000
    C11     C    0.90830   0.81870   0.29780   1.000
    H17     H    0.96420   0.81160   0.29700   1.000
    C12     C    0.86120   0.77270   0.36990   1.000
    H18     H    0.88530   0.73490   0.41810   1.000
    H19     H    0.63510   0.70700   0.24640   1.000
    H20     H    0.62570   0.61490   0.27650   1.000
    H21     H    0.71050   0.64940   0.24100   1.000
    O4      O    0.01340   0.10620   0.11800   1.000
    C13     C    0.11360   0.20790   0.23210   1.000
    H22     H    0.07430   0.23190   0.18610   1.000
    C14     C    0.15920   0.25380   0.30380   1.000
    H23     H    0.15090   0.30940   0.30780   1.000
    C15     C    0.09170   0.18130   0.29780   1.000
    H24     H    0.03580   0.18840   0.29700   1.000
    C16     C    0.13880   0.22730   0.36990   1.000
    H25     H    0.11470   0.26510   0.41810   1.000
    H26     H    0.36490   0.29300   0.24640   1.000
    H27     H    0.37430   0.38510   0.27650   1.000
    H28     H    0.28950   0.35060   0.24100   1.000
    O5      O    0.10620   0.01340   0.88200   1.000
    C17     C    0.20790   0.11360   0.76790   1.000
    H29     H    0.23190   0.07430   0.81390   1.000
    C18     C    0.25380   0.15920   0.69620   1.000
    H30     H    0.30940   0.15090   0.69220   1.000
    C19     C    0.18130   0.09170   0.70220   1.000
    H31     H    0.18840   0.03580   0.70300   1.000
    C20     C    0.22730   0.13880   0.63010   1.000
    H32     H    0.26510   0.11470   0.58190   1.000
    H33     H    0.29300   0.36490   0.75360   1.000
    H34     H    0.38510   0.37430   0.72350   1.000
    H35     H    0.35060   0.28950   0.75900   1.000
    O6      O    0.89380   0.98660   0.88200   1.000
    C21     C    0.79210   0.88640   0.76790   1.000
    H36     H    0.76810   0.92570   0.81390   1.000
    C22     C    0.74620   0.84080   0.69620   1.000
    H37     H    0.69060   0.84910   0.69220   1.000
    C23     C    0.81870   0.90830   0.70220   1.000
    H38     H    0.81160   0.96420   0.70300   1.000
    C24     C    0.77270   0.86120   0.63010   1.000
    H39     H    0.73490   0.88530   0.58190   1.000
    H40     H    0.70700   0.63510   0.75360   1.000
    H41     H    0.61490   0.62570   0.72350   1.000
    H42     H    0.64940   0.71050   0.75900   1.000
    O7      O    0.51340   0.39380   0.38200   1.000
    C25     C    0.61360   0.29210   0.26790   1.000
    H43     H    0.57430   0.26810   0.31390   1.000
    C26     C    0.65920   0.24620   0.19620   1.000
    H44     H    0.65090   0.19060   0.19220   1.000
    C27     C    0.59170   0.31870   0.20220   1.000
    H45     H    0.53580   0.31160   0.20300   1.000
    C28     C    0.63880   0.27270   0.13010   1.000
    H46     H    0.61470   0.23490   0.08190   1.000
    H47     H    0.86490   0.20700   0.25360   1.000
    H48     H    0.87430   0.11490   0.22350   1.000
    H49     H    0.78950   0.14940   0.25900   1.000
    O8      O    0.48660   0.60620   0.38200   1.000
    C29     C    0.38640   0.70790   0.26790   1.000
    H50     H    0.42570   0.73190   0.31390   1.000
    C30     C    0.34080   0.75380   0.19620   1.000
    H51     H    0.34910   0.80940   0.19220   1.000
    C31     C    0.40830   0.68130   0.20220   1.000
    H52     H    0.46420   0.68840   0.20300   1.000
    C32     C    0.36120   0.72730   0.13010   1.000
    H53     H    0.38530   0.76510   0.08190   1.000
    H54     H    0.13510   0.79300   0.25360   1.000
    H55     H    0.12570   0.88510   0.22350   1.000
    H56     H    0.21050   0.85060   0.25900   1.000
    O9      O    0.60620   0.48660   0.38200   1.000
    C33     C    0.70790   0.38640   0.26790   1.000
    H57     H    0.73190   0.42570   0.31390   1.000
    C34     C    0.75380   0.34080   0.19620   1.000
    H58     H    0.80940   0.34910   0.19220   1.000
    C35     C    0.68130   0.40830   0.20220   1.000
    H59     H    0.68840   0.46420   0.20300   1.000
    C36     C    0.72730   0.36120   0.13010   1.000
    H60     H    0.76510   0.38530   0.08190   1.000
    H61     H    0.79300   0.13510   0.25360   1.000
    H62     H    0.88510   0.12570   0.22350   1.000
    H63     H    0.85060   0.21050   0.25900   1.000
    O10     O    0.39380   0.51340   0.38200   1.000
    C37     C    0.29210   0.61360   0.26790   1.000
    H64     H    0.26810   0.57430   0.31390   1.000
    C38     C    0.24620   0.65920   0.19620   1.000
    H65     H    0.19060   0.65090   0.19220   1.000
    C39     C    0.31870   0.59170   0.20220   1.000
    H66     H    0.31160   0.53580   0.20300   1.000
    C40     C    0.27270   0.63880   0.13010   1.000
    H67     H    0.23490   0.61470   0.08190   1.000
    H68     H    0.20700   0.86490   0.25360   1.000
    H69     H    0.11490   0.87430   0.22350   1.000
    H70     H    0.14940   0.78950   0.25900   1.000
    O11     O    0.01340   0.10620   0.88200   1.000
    C41     C    0.11360   0.20790   0.76790   1.000
    H71     H    0.07430   0.23190   0.81390   1.000
    C42     C    0.15920   0.25380   0.69620   1.000
    H72     H    0.15090   0.30940   0.69220   1.000
    C43     C    0.09170   0.18130   0.70220   1.000
    H73     H    0.03580   0.18840   0.70300   1.000
    C44     C    0.13880   0.22730   0.63010   1.000
    H74     H    0.11470   0.26510   0.58190   1.000
    H75     H    0.36490   0.29300   0.75360   1.000
    H76     H    0.37430   0.38510   0.72350   1.000
    H77     H    0.28950   0.35060   0.75900   1.000
    O12     O    0.98660   0.89380   0.88200   1.000
    C45     C    0.88640   0.79210   0.76790   1.000
    H78     H    0.92570   0.76810   0.81390   1.000
    C46     C    0.84080   0.74620   0.69620   1.000
    H79     H    0.84910   0.69060   0.69220   1.000
    C47     C    0.90830   0.81870   0.70220   1.000
    H80     H    0.96420   0.81160   0.70300   1.000
    C48     C    0.86120   0.77270   0.63010   1.000
    H81     H    0.88530   0.73490   0.58190   1.000
    H82     H    0.63510   0.70700   0.75360   1.000
    H83     H    0.62570   0.61490   0.72350   1.000
    H84     H    0.71050   0.64940   0.75900   1.000
    O13     O    0.89380   0.98660   0.11800   1.000
    C49     C    0.79210   0.88640   0.23210   1.000
    H85     H    0.76810   0.92570   0.18610   1.000
    C50     C    0.74620   0.84080   0.30380   1.000
    H86     H    0.69060   0.84910   0.30780   1.000
    C51     C    0.81870   0.90830   0.29780   1.000
    H87     H    0.81160   0.96420   0.29700   1.000
    C52     C    0.77270   0.86120   0.36990   1.000
    H88     H    0.73490   0.88530   0.41810   1.000
    H89     H    0.70700   0.63510   0.24640   1.000
    H90     H    0.61490   0.62570   0.27650   1.000
    H91     H    0.64940   0.71050   0.24100   1.000
    O14     O    0.10620   0.01340   0.11800   1.000
    C53     C    0.20790   0.11360   0.23210   1.000
    H92     H    0.23190   0.07430   0.18610   1.000
    C54     C    0.25380   0.15920   0.30380   1.000
    H93     H    0.30940   0.15090   0.30780   1.000
    C55     C    0.18130   0.09170   0.29780   1.000
    H94     H    0.18840   0.03580   0.29700   1.000
    C56     C    0.22730   0.13880   0.36990   1.000
    H95     H    0.26510   0.11470   0.41810   1.000
    H96     H    0.29300   0.36490   0.24640   1.000
    H97     H    0.38510   0.37430   0.27650   1.000
    H98     H    0.35060   0.28950   0.24100   1.000
    O15     O    0.48660   0.60620   0.61800   1.000
    C57     C    0.38640   0.70790   0.73210   1.000
    H99     H    0.42570   0.73190   0.68610   1.000
    C58     C    0.34080   0.75380   0.80380   1.000
    H100    H    0.34910   0.80940   0.80780   1.000
    C59     C    0.40830   0.68130   0.79780   1.000
    H101    H    0.46420   0.68840   0.79700   1.000
    C60     C    0.36120   0.72730   0.86990   1.000
    H102    H    0.38530   0.76510   0.91810   1.000
    H103    H    0.13510   0.79300   0.74640   1.000
    H104    H    0.12570   0.88510   0.77650   1.000
    H105    H    0.21050   0.85060   0.74100   1.000
    O16     O    0.51340   0.39380   0.61800   1.000
    C61     C    0.61360   0.29210   0.73210   1.000
    H106    H    0.57430   0.26810   0.68610   1.000
    C62     C    0.65920   0.24620   0.80380   1.000
    H107    H    0.65090   0.19060   0.80780   1.000
    C63     C    0.59170   0.31870   0.79780   1.000
    H108    H    0.53580   0.31160   0.79700   1.000
    C64     C    0.63880   0.27270   0.86990   1.000
    H109    H    0.61470   0.23490   0.91810   1.000
    H110    H    0.86490   0.20700   0.74640   1.000
    H111    H    0.87430   0.11490   0.77650   1.000
    H112    H    0.78950   0.14940   0.74100   1.000
    C65     C    0.42165   0.57835   0.64990   1.000
    C66     C    0.37392   0.62608   0.72830   1.000
    C67     C    0.28218   0.71782   0.87060   1.000
    C68     C    0.16100   0.83900   0.78090   1.000
    C69     C    0.17999   0.82001   0.90850   1.000
    C70     C    0.23313   0.76687   0.94220   1.000
    N1      N    0.23313   0.76687   0.05780   1.000
    C71     C    0.57835   0.42165   0.64990   1.000
    C72     C    0.62608   0.37392   0.72830   1.000
    C73     C    0.71782   0.28218   0.87060   1.000
    C74     C    0.83900   0.16100   0.78090   1.000
    C75     C    0.82001   0.17999   0.90850   1.000
    C76     C    0.76687   0.23313   0.94220   1.000
    N2      N    0.76687   0.23313   0.05780   1.000
    C77     C    0.92165   0.92165   0.14990   1.000
    C78     C    0.87392   0.87392   0.22830   1.000
    C79     C    0.78218   0.78218   0.37060   1.000
    C80     C    0.66100   0.66100   0.28090   1.000
    C81     C    0.67999   0.67999   0.40850   1.000
    C82     C    0.73313   0.73313   0.44220   1.000
    N3      N    0.73313   0.73313   0.55780   1.000
    C83     C    0.07835   0.07835   0.14990   1.000
    C84     C    0.12608   0.12608   0.22830   1.000
    C85     C    0.21782   0.21782   0.37060   1.000
    C86     C    0.33900   0.33900   0.28090   1.000
    C87     C    0.32001   0.32001   0.40850   1.000
    C88     C    0.26687   0.26687   0.44220   1.000
    N4      N    0.26687   0.26687   0.55780   1.000
    C89     C    0.07835   0.07835   0.85010   1.000
    C90     C    0.12608   0.12608   0.77170   1.000
    C91     C    0.21782   0.21782   0.62940   1.000
    C92     C    0.33900   0.33900   0.71910   1.000
    C93     C    0.32001   0.32001   0.59150   1.000
    C94     C    0.92165   0.92165   0.85010   1.000
    C95     C    0.87392   0.87392   0.77170   1.000
    C96     C    0.78218   0.78218   0.62940   1.000
    C97     C    0.66100   0.66100   0.71910   1.000
    C98     C    0.67999   0.67999   0.59150   1.000
    C99     C    0.57835   0.42165   0.35010   1.000
    C100    C    0.62608   0.37392   0.27170   1.000
    C101    C    0.71782   0.28218   0.12940   1.000
    C102    C    0.83900   0.16100   0.21910   1.000
    C103    C    0.82001   0.17999   0.09150   1.000
    C104    C    0.42165   0.57835   0.35010   1.000
    C105    C    0.37392   0.62608   0.27170   1.000
    C106    C    0.28218   0.71782   0.12940   1.000
    C107    C    0.16100   0.83900   0.21910   1.000
    C108    C    0.17999   0.82001   0.09150   1.000
    Zn1     Zn   0.43701   0.43701   0.50000   1.000
    Zn2     Zn   0.56299   0.56299   0.50000   1.000
    Zn3     Zn   0.06299   0.93701   0.00000   1.000
    Zn4     Zn   0.93701   0.06299   0.00000   1.000
    N5      N    0.14700   0.85300   0.00000   1.000
    N6      N    0.85300   0.14700   0.00000   1.000
    N7      N    0.64700   0.64700   0.50000   1.000
    N8      N    0.35300   0.35300   0.50000   1.000
