data_functionalizedCrystal
_audit_creation_method	'EQeq! by Chris Wilmer'
_symmetry_space_group_name_H-M	'P1'
_symmetry_Int_Tables_number	1
_symmetry_cell_setting	triclinic
loop_
_symmetry_equiv_pos_as_xyz
  x,y,z
_cell_length_a	15.0294
_cell_length_b	15.0294
_cell_length_c	19.2362
_cell_angle_alpha	90
_cell_angle_beta	90
_cell_angle_gamma	90
loop_
_atom_site_label
_atom_site_type_symbol
_atom_site_fract_x
_atom_site_fract_y
_atom_site_fract_z
_atom_site_charge
Mof_O 	O 	0.94566	0.12168	0.05779	-0.482
Mof_C 	C 	0.82953	0.26451	0.06218	-0.01
Mof_H 	H 	0.8527	0.2436	0.1045	0.046
Mof_C 	C 	0.954	0.0779	0.2112	2.256
Mof_H 	H 	0.9029	0.094	0.1823	-0.257
Mof_H 	H 	0.9944	0.129	0.2141	-0.664
Mof_C 	C 	0.9153	0.025	0.2086	-2.021
Mof_O 	O 	0.44566	0.62168	0.55779	-0.469
Mof_C 	C 	0.32953	0.76451	0.56218	-0.013
Mof_H 	H 	0.3527	0.7436	0.6045	0.044
Mof_C 	C 	0.454	0.5779	0.7112	-0.055
Mof_H 	H 	0.4029	0.594	0.6823	0.037
Mof_H 	H 	0.4944	0.629	0.7141	0.047
Mof_C 	C 	0.4153	0.525	0.7086	-0.002
Mof_O 	O 	0.05434	0.87832	0.05779	-0.479
Mof_C 	C 	0.17047	0.73549	0.06218	-0.003
Mof_H 	H 	0.1473	0.7564	0.1045	0.041
Mof_C 	C 	0.046	0.9221	0.2112	-2.225
Mof_H 	H 	0.0971	0.906	0.1823	0.329
Mof_H 	H 	0.0056	0.871	0.2141	0.607
Mof_C 	C 	0.0847	0.975	0.2086	1.699
Mof_O 	O 	0.55434	0.37832	0.55779	-0.465
Mof_C 	C 	0.67047	0.23549	0.56218	-0.018
Mof_H 	H 	0.6473	0.2564	0.6045	0.053
Mof_C 	C 	0.546	0.4221	0.7112	-0.024
Mof_H 	H 	0.5971	0.406	0.6823	0.031
Mof_H 	H 	0.5056	0.371	0.7141	0.048
Mof_C 	C 	0.5847	0.475	0.7086	-0.033
Mof_O 	O 	0.87832	0.94566	0.05779	-0.546
Mof_C 	C 	0.73549	0.82953	0.06218	-0.004
Mof_H 	H 	0.7564	0.8527	0.1045	0.016
Mof_C 	C 	0.9221	0.954	0.2112	0.17
Mof_H 	H 	0.906	0.9029	0.1823	-0.258
Mof_H 	H 	0.871	0.9944	0.2141	0.739
Mof_C 	C 	0.975	0.9153	0.2086	0.457
Mof_O 	O 	0.37832	0.44566	0.55779	-0.462
Mof_C 	C 	0.23549	0.32953	0.56218	0.002
Mof_H 	H 	0.2564	0.3527	0.6045	0.057
Mof_C 	C 	0.4221	0.454	0.7112	-0.049
Mof_H 	H 	0.406	0.4029	0.6823	0.044
Mof_H 	H 	0.371	0.4944	0.7141	0.049
Mof_C 	C 	0.475	0.4153	0.7086	-0.018
Mof_O 	O 	0.12168	0.05434	0.05779	-0.433
Mof_C 	C 	0.26451	0.17047	0.06218	-0.006
Mof_H 	H 	0.2436	0.1473	0.1045	0.065
Mof_C 	C 	0.0779	0.046	0.2112	-0.615
Mof_H 	H 	0.094	0.0971	0.1823	0.361
Mof_H 	H 	0.129	0.0056	0.2141	-0.419
Mof_C 	C 	0.025	0.0847	0.2086	-0.225
Mof_O 	O 	0.62168	0.55434	0.55779	-0.471
Mof_C 	C 	0.76451	0.67047	0.56218	-0.038
Mof_H 	H 	0.7436	0.6473	0.6045	0.041
Mof_C 	C 	0.5779	0.546	0.7112	-0.03
Mof_H 	H 	0.594	0.5971	0.6823	0.023
Mof_H 	H 	0.629	0.5056	0.7141	0.046
Mof_C 	C 	0.525	0.5847	0.7086	-0.017
Mof_O 	O 	0.05434	0.12168	0.44221	-0.439
Mof_C 	C 	0.17047	0.26451	0.43782	-0.009
Mof_H 	H 	0.1473	0.2436	0.3955	0.068
Mof_C 	C 	0.046	0.0779	0.2888	-0.611
Mof_H 	H 	0.0971	0.094	0.3177	0.362
Mof_H 	H 	0.0056	0.129	0.2859	-0.42
Mof_C 	C 	0.0847	0.025	0.2914	-0.231
Mof_O 	O 	0.55434	0.62168	0.94221	-0.422
Mof_C 	C 	0.67047	0.76451	0.93782	0.014
Mof_H 	H 	0.6473	0.7436	0.8955	0.031
Mof_C 	C 	0.546	0.5779	0.7888	-0.03
Mof_H 	H 	0.5971	0.594	0.8177	0.024
Mof_H 	H 	0.5056	0.629	0.7859	0.047
Mof_C 	C 	0.5847	0.525	0.7914	-0.018
Mof_O 	O 	0.94566	0.87832	0.44221	-0.553
Mof_C 	C 	0.82953	0.73549	0.43782	-0.007
Mof_H 	H 	0.8527	0.7564	0.3955	0.018
Mof_C 	C 	0.954	0.9221	0.2888	0.166
Mof_H 	H 	0.9029	0.906	0.3177	-0.257
Mof_H 	H 	0.9944	0.871	0.2859	0.742
Mof_C 	C 	0.9153	0.975	0.2914	0.46
Mof_O 	O 	0.44566	0.37832	0.94221	-0.413
Mof_C 	C 	0.32953	0.23549	0.93782	0.054
Mof_H 	H 	0.3527	0.2564	0.8955	0.046
Mof_C 	C 	0.454	0.4221	0.7888	-0.049
Mof_H 	H 	0.4029	0.406	0.8177	0.046
Mof_H 	H 	0.4944	0.371	0.7859	0.05
Mof_C 	C 	0.4153	0.475	0.7914	-0.019
Mof_O 	O 	0.12168	0.94566	0.44221	-0.487
Mof_C 	C 	0.26451	0.82953	0.43782	-0.013
Mof_H 	H 	0.2436	0.8527	0.3955	0.048
Mof_C 	C 	0.0779	0.954	0.2888	2.26
Mof_H 	H 	0.094	0.9029	0.3177	-0.256
Mof_H 	H 	0.129	0.9944	0.2859	-0.663
Mof_C 	C 	0.025	0.9153	0.2914	-2.024
Mof_O 	O 	0.62168	0.44566	0.94221	-0.42
Mof_C 	C 	0.76451	0.32953	0.93782	0.039
Mof_H 	H 	0.7436	0.3527	0.8955	0.034
Mof_C 	C 	0.5779	0.454	0.7888	-0.054
Mof_H 	H 	0.594	0.4029	0.8177	0.038
Mof_H 	H 	0.629	0.4944	0.7859	0.048
Mof_C 	C 	0.525	0.4153	0.7914	-0.003
Mof_O 	O 	0.87832	0.05434	0.44221	-0.485
Mof_C 	C 	0.73549	0.17047	0.43782	-0.007
Mof_H 	H 	0.7564	0.1473	0.3955	0.043
Mof_C 	C 	0.9221	0.046	0.2888	-2.228
Mof_H 	H 	0.906	0.0971	0.3177	0.331
Mof_H 	H 	0.871	0.0056	0.2859	0.607
Mof_C 	C 	0.975	0.0847	0.2914	1.7
Mof_O 	O 	0.37832	0.55434	0.94221	-0.416
Mof_C 	C 	0.23549	0.67047	0.93782	0.034
Mof_H 	H 	0.2564	0.6473	0.8955	0.043
Mof_C 	C 	0.4221	0.546	0.7888	-0.024
Mof_H 	H 	0.406	0.5971	0.8177	0.032
Mof_H 	H 	0.371	0.5056	0.7859	0.049
Mof_C 	C 	0.475	0.5847	0.7914	-0.035
Mof_O 	O 	0.05434	0.87832	0.94221	-0.437
Mof_C 	C 	0.17047	0.73549	0.93782	0.045
Mof_H 	H 	0.1473	0.7564	0.8955	0.034
Mof_C 	C 	0.046	0.9221	0.7888	-2.226
Mof_H 	H 	0.0971	0.906	0.8177	0.332
Mof_H 	H 	0.0056	0.871	0.7859	0.61
Mof_C 	C 	0.0847	0.975	0.7914	1.699
Mof_O 	O 	0.55434	0.37832	0.44221	-0.465
Mof_C 	C 	0.67047	0.23549	0.43782	-0.018
Mof_H 	H 	0.6473	0.2564	0.3955	0.052
Mof_C 	C 	0.546	0.4221	0.2888	-0.023
Mof_H 	H 	0.5971	0.406	0.3177	0.03
Mof_H 	H 	0.5056	0.371	0.2859	0.047
Mof_C 	C 	0.5847	0.475	0.2914	-0.034
Mof_O 	O 	0.94566	0.12168	0.94221	-0.439
Mof_C 	C 	0.82953	0.26451	0.93782	0.038
Mof_H 	H 	0.8527	0.2436	0.8955	0.039
Mof_C 	C 	0.954	0.0779	0.7888	2.257
Mof_H 	H 	0.9029	0.094	0.8177	-0.254
Mof_H 	H 	0.9944	0.129	0.7859	-0.662
Mof_C 	C 	0.9153	0.025	0.7914	-2.024
Mof_O 	O 	0.44566	0.62168	0.44221	-0.469
Mof_C 	C 	0.32953	0.76451	0.43782	-0.014
Mof_H 	H 	0.3527	0.7436	0.3955	0.043
Mof_C 	C 	0.454	0.5779	0.2888	-0.054
Mof_H 	H 	0.4029	0.594	0.3177	0.036
Mof_H 	H 	0.4944	0.629	0.2859	0.046
Mof_C 	C 	0.4153	0.525	0.2914	-0.003
Mof_O 	O 	0.12168	0.05434	0.94221	-0.391
Mof_C 	C 	0.26451	0.17047	0.93782	0.043
Mof_H 	H 	0.2436	0.1473	0.8955	0.059
Mof_C 	C 	0.0779	0.046	0.7888	-0.616
Mof_H 	H 	0.094	0.0971	0.8177	0.364
Mof_H 	H 	0.129	0.0056	0.7859	-0.417
Mof_C 	C 	0.025	0.0847	0.7914	-0.227
Mof_O 	O 	0.62168	0.55434	0.44221	-0.472
Mof_C 	C 	0.76451	0.67047	0.43782	-0.039
Mof_H 	H 	0.7436	0.6473	0.3955	0.04
Mof_C 	C 	0.5779	0.546	0.2888	-0.029
Mof_H 	H 	0.594	0.5971	0.3177	0.022
Mof_H 	H 	0.629	0.5056	0.2859	0.045
Mof_C 	C 	0.525	0.5847	0.2914	-0.018
Mof_O 	O 	0.87832	0.94566	0.94221	-0.504
Mof_C 	C 	0.73549	0.82953	0.93782	0.044
Mof_H 	H 	0.7564	0.8527	0.8955	0.009
Mof_C 	C 	0.9221	0.954	0.7888	0.17
Mof_H 	H 	0.906	0.9029	0.8177	-0.255
Mof_H 	H 	0.871	0.9944	0.7859	0.742
Mof_C 	C 	0.975	0.9153	0.7914	0.455
Mof_O 	O 	0.37832	0.44566	0.44221	-0.463
Mof_C 	C 	0.23549	0.32953	0.43782	0.002
Mof_H 	H 	0.2564	0.3527	0.3955	0.056
Mof_C 	C 	0.4221	0.454	0.2888	-0.048
Mof_H 	H 	0.406	0.4029	0.3177	0.043
Mof_H 	H 	0.371	0.4944	0.2859	0.048
Mof_C 	C 	0.475	0.4153	0.2914	-0.019
Mof_O 	O 	0.94566	0.87832	0.55779	-0.553
Mof_C 	C 	0.82953	0.73549	0.56218	-0.007
Mof_H 	H 	0.8527	0.7564	0.6045	0.019
Mof_C 	C 	0.954	0.9221	0.7112	0.165
Mof_H 	H 	0.9029	0.906	0.6823	-0.256
Mof_H 	H 	0.9944	0.871	0.7141	0.743
Mof_C 	C 	0.9153	0.975	0.7086	0.461
Mof_O 	O 	0.44566	0.37832	0.05779	-0.456
Mof_C 	C 	0.32953	0.23549	0.06218	0.005
Mof_H 	H 	0.3527	0.2564	0.1045	0.053
Mof_C 	C 	0.454	0.4221	0.2112	-0.049
Mof_H 	H 	0.4029	0.406	0.1823	0.042
Mof_H 	H 	0.4944	0.371	0.2141	0.047
Mof_C 	C 	0.4153	0.475	0.2086	-0.018
Mof_O 	O 	0.05434	0.12168	0.55779	-0.439
Mof_C 	C 	0.17047	0.26451	0.56218	-0.009
Mof_H 	H 	0.1473	0.2436	0.6045	0.069
Mof_C 	C 	0.046	0.0779	0.7112	-0.612
Mof_H 	H 	0.0971	0.094	0.6823	0.363
Mof_H 	H 	0.0056	0.129	0.7141	-0.42
Mof_C 	C 	0.0847	0.025	0.7086	-0.23
Mof_O 	O 	0.55434	0.62168	0.05779	-0.466
Mof_C 	C 	0.67047	0.76451	0.06218	-0.035
Mof_H 	H 	0.6473	0.7436	0.1045	0.038
Mof_C 	C 	0.546	0.5779	0.2112	-0.03
Mof_H 	H 	0.5971	0.594	0.1823	0.021
Mof_H 	H 	0.5056	0.629	0.2141	0.044
Mof_C 	C 	0.5847	0.525	0.2086	-0.017
Mof_O 	O 	0.87832	0.05434	0.55779	-0.485
Mof_C 	C 	0.73549	0.17047	0.56218	-0.006
Mof_H 	H 	0.7564	0.1473	0.6045	0.044
Mof_C 	C 	0.9221	0.046	0.7112	-2.23
Mof_H 	H 	0.906	0.0971	0.6823	0.332
Mof_H 	H 	0.871	0.0056	0.7141	0.608
Mof_C 	C 	0.975	0.0847	0.7086	1.702
Mof_O 	O 	0.37832	0.55434	0.05779	-0.459
Mof_C 	C 	0.23549	0.67047	0.06218	-0.015
Mof_H 	H 	0.2564	0.6473	0.1045	0.05
Mof_C 	C 	0.4221	0.546	0.2112	-0.024
Mof_H 	H 	0.406	0.5971	0.1823	0.029
Mof_H 	H 	0.371	0.5056	0.2141	0.046
Mof_C 	C 	0.475	0.5847	0.2086	-0.033
Mof_O 	O 	0.12168	0.94566	0.55779	-0.487
Mof_C 	C 	0.26451	0.82953	0.56218	-0.013
Mof_H 	H 	0.2436	0.8527	0.6045	0.049
Mof_C 	C 	0.0779	0.954	0.7112	2.26
Mof_H 	H 	0.094	0.9029	0.6823	-0.256
Mof_H 	H 	0.129	0.9944	0.7141	-0.662
Mof_C 	C 	0.025	0.9153	0.7086	-2.024
Mof_O 	O 	0.62168	0.44566	0.05779	-0.463
Mof_C 	C 	0.76451	0.32953	0.06218	-0.01
Mof_H 	H 	0.7436	0.3527	0.1045	0.041
Mof_C 	C 	0.5779	0.454	0.2112	-0.055
Mof_H 	H 	0.594	0.4029	0.1823	0.035
Mof_H 	H 	0.629	0.4944	0.2141	0.045
Mof_C 	C 	0.525	0.4153	0.2086	-0.002
Mof_Zn	Zn	-3.58417e-34	0	0.07664	1.278
Mof_N 	N 	8.78002e-34	0	0.18296	-0.019
Mof_Zn	Zn	0.5	0.5	0.57664	1.214
Mof_N 	N 	0.5	0.5	0.68296	-0.188
Mof_Zn	Zn	-3.77797e-33	-5.80962e-33	0.42336	1.284
Mof_N 	N 	-4.28819e-33	-2.90481e-33	0.31704	-0.017
Mof_Zn	Zn	0.5	0.5	0.92336	1.216
Mof_N 	N 	0.5	0.5	0.81704	-0.189
Mof_Zn	Zn	4.43109e-33	0	0.92336	1.285
Mof_N 	N 	-7.69837e-33	-1.16192e-32	0.81704	-0.018
Mof_Zn	Zn	0.5	0.5	0.42336	1.214
Mof_N 	N 	0.5	0.5	0.31704	-0.188
Mof_Zn	Zn	-3.0424e-33	-5.80962e-33	0.57664	1.284
Mof_N 	N 	3.27744e-33	0	0.68296	-0.017
Mof_Zn	Zn	0.5	0.5	0.07664	1.209
Mof_N 	N 	0.5	0.5	0.18296	-0.189
Mof_C 	C 	0.9227	0.1518	-0	0.35
Mof_C 	C 	0.8607	0.23	-0	-0.13
Mof_C 	C 	0.4227	0.6518	0.5	0.391
Mof_C 	C 	0.3607	0.73	0.5	-0.086
Mof_C 	C 	0.0773	0.8482	-0	0.348
Mof_C 	C 	0.1393	0.77	-0	-0.137
Mof_C 	C 	0.5773	0.3482	0.5	0.39
Mof_C 	C 	0.6393	0.27	0.5	-0.076
Mof_C 	C 	0.8482	0.9227	-0	0.345
Mof_C 	C 	0.77	0.8607	-0	-0.166
Mof_C 	C 	0.3482	0.4227	0.5	0.397
Mof_C 	C 	0.27	0.3607	0.5	-0.078
Mof_C 	C 	0.1518	0.0773	-0	0.356
Mof_C 	C 	0.23	0.1393	-0	-0.11
Mof_C 	C 	0.6518	0.5773	0.5	0.383
Mof_C 	C 	0.73	0.6393	0.5	-0.081
Mof_C 	C 	0.0773	0.1518	0.5	0.41
Mof_C 	C 	0.1393	0.23	0.5	-0.063
Mof_C 	C 	0.5773	0.6518	-0	0.329
Mof_C 	C 	0.6393	0.73	-0	-0.128
Mof_C 	C 	0.9227	0.8482	0.5	0.397
Mof_C 	C 	0.8607	0.77	0.5	-0.121
Mof_C 	C 	0.4227	0.3482	-0	0.342
Mof_C 	C 	0.3607	0.27	-0	-0.125
Mof_C 	C 	0.1518	0.9227	0.5	0.403
Mof_C 	C 	0.23	0.8607	0.5	-0.084
Mof_C 	C 	0.6518	0.4227	-0	0.337
Mof_C 	C 	0.73	0.3607	-0	-0.133
Mof_C 	C 	0.8482	0.0773	0.5	0.402
Mof_C 	C 	0.77	0.1393	0.5	-0.091
Mof_C 	C 	0.3482	0.5773	-0	0.335
Mof_C 	C 	0.27	0.6393	-0	-0.123
_end
