data_functionalizedCrystal
_audit_creation_method	'EQeq! by Chris Wilmer'
_symmetry_space_group_name_H-M	'P1'
_symmetry_Int_Tables_number	1
_symmetry_cell_setting	triclinic
loop_
_symmetry_equiv_pos_as_xyz
  x,y,z
_cell_length_a	18.1226
_cell_length_b	18.1226
_cell_length_c	8.7244
_cell_angle_alpha	90
_cell_angle_beta	90
_cell_angle_gamma	120
loop_
_atom_site_label
_atom_site_type_symbol
_atom_site_fract_x
_atom_site_fract_y
_atom_site_fract_z
_atom_site_charge
Mof_C 	C 	0.251	0.996	0.335	0.332
Mof_C 	C 	0.341	0.037	0.317	0.413
Mof_C 	C 	0.004	0.255	0.335	0.332
Mof_C 	C 	0.963	0.304	0.317	0.412
Mof_C 	C 	0.745	0.749	0.335	0.333
Mof_C 	C 	0.696	0.659	0.317	0.415
Mof_C 	C 	0.749	0.004	0.835	0.332
Mof_C 	C 	0.659	0.963	0.817	0.415
Mof_C 	C 	0.996	0.745	0.835	0.332
Mof_C 	C 	0.037	0.696	0.817	0.414
Mof_C 	C 	0.255	0.251	0.835	0.333
Mof_C 	C 	0.304	0.341	0.817	0.415
Mof_C 	C 	0.996	0.251	0.665	0.333
Mof_C 	C 	0.037	0.341	0.683	0.414
Mof_C 	C 	0.255	0.004	0.665	0.333
Mof_C 	C 	0.304	0.963	0.683	0.413
Mof_C 	C 	0.749	0.745	0.665	0.333
Mof_C 	C 	0.659	0.696	0.683	0.415
Mof_C 	C 	0.004	0.749	0.165	0.332
Mof_C 	C 	0.963	0.659	0.183	0.415
Mof_C 	C 	0.745	0.996	0.165	0.332
Mof_C 	C 	0.696	0.037	0.183	0.414
Mof_C 	C 	0.251	0.255	0.165	0.333
Mof_C 	C 	0.341	0.304	0.183	0.415
Mof_C 	C 	0.749	0.004	0.665	0.333
Mof_C 	C 	0.659	0.963	0.683	0.414
Mof_C 	C 	0.996	0.745	0.665	0.333
Mof_C 	C 	0.037	0.696	0.683	0.413
Mof_C 	C 	0.255	0.251	0.665	0.333
Mof_C 	C 	0.304	0.341	0.683	0.415
Mof_C 	C 	0.251	0.996	0.165	0.332
Mof_C 	C 	0.341	0.037	0.183	0.415
Mof_C 	C 	0.004	0.255	0.165	0.332
Mof_C 	C 	0.963	0.304	0.183	0.414
Mof_C 	C 	0.745	0.749	0.165	0.333
Mof_C 	C 	0.696	0.659	0.183	0.415
Mof_C 	C 	0.004	0.749	0.335	0.333
Mof_C 	C 	0.963	0.659	0.317	0.414
Mof_C 	C 	0.745	0.996	0.335	0.333
Mof_C 	C 	0.696	0.037	0.317	0.413
Mof_C 	C 	0.251	0.255	0.335	0.333
Mof_C 	C 	0.341	0.304	0.317	0.415
Mof_C 	C 	0.996	0.251	0.835	0.332
Mof_C 	C 	0.037	0.341	0.817	0.415
Mof_C 	C 	0.255	0.004	0.835	0.332
Mof_C 	C 	0.304	0.963	0.817	0.414
Mof_C 	C 	0.749	0.745	0.835	0.333
Mof_C 	C 	0.659	0.696	0.817	0.415
Mof_Cu	Cu	0.53639	0.07279	0.25	0.809
Mof_Cu	Cu	0.92721	0.4636	0.25	0.809
Mof_Cu	Cu	0.53639	0.46361	0.25	0.808
Mof_Cu	Cu	0.46361	0.92721	0.75	0.809
Mof_Cu	Cu	0.07279	0.53639	0.75	0.809
Mof_Cu	Cu	0.4636	0.53639	0.75	0.808
Mof_C 	C 	0.588	0.2555	0.25	-0.001
Mof_N 	N 	0.5144	0.1793	0.25	-0.264
Mof_C 	C 	0.4443	0.184	0.25	0.118
Mof_N 	N 	0.3223	0.0301	0.25	-0.873
Mof_O 	O 	0.3629	0.1284	0.25	-0.642
Mof_C 	C 	0.3712	0.0914	0.25	0.56
Mof_C 	C 	0.252	0.986	0.25	-0.524
Mof_C 	C 	0.7445	0.3325	0.25	-0.001
Mof_N 	N 	0.8207	0.3351	0.25	-0.264
Mof_C 	C 	0.816	0.2603	0.25	0.118
Mof_N 	N 	0.9699	0.2922	0.25	-0.873
Mof_O 	O 	0.8716	0.2345	0.25	-0.642
Mof_C 	C 	0.9086	0.2798	0.25	0.561
Mof_C 	C 	0.014	0.266	0.25	-0.524
Mof_C 	C 	0.6675	0.412	0.25	-0.001
Mof_N 	N 	0.6649	0.4856	0.25	-0.264
Mof_C 	C 	0.7397	0.5557	0.25	0.118
Mof_N 	N 	0.7078	0.6777	0.25	-0.874
Mof_O 	O 	0.7655	0.6371	0.25	-0.642
Mof_C 	C 	0.7202	0.6288	0.25	0.56
Mof_C 	C 	0.734	0.748	0.25	-0.524
Mof_C 	C 	0.412	0.7445	0.75	-0.001
Mof_N 	N 	0.4856	0.8207	0.75	-0.264
Mof_C 	C 	0.5557	0.816	0.75	0.118
Mof_N 	N 	0.6777	0.9699	0.75	-0.873
Mof_O 	O 	0.6371	0.8716	0.75	-0.642
Mof_C 	C 	0.6288	0.9086	0.75	0.56
Mof_C 	C 	0.748	0.014	0.75	-0.524
Mof_C 	C 	0.2555	0.6675	0.75	-0.001
Mof_N 	N 	0.1793	0.6649	0.75	-0.264
Mof_C 	C 	0.184	0.7397	0.75	0.118
Mof_N 	N 	0.0301	0.7078	0.75	-0.873
Mof_O 	O 	0.1284	0.7655	0.75	-0.642
Mof_C 	C 	0.0914	0.7202	0.75	0.561
Mof_C 	C 	0.986	0.734	0.75	-0.524
Mof_C 	C 	0.3325	0.588	0.75	-0.001
Mof_N 	N 	0.3351	0.5144	0.75	-0.264
Mof_C 	C 	0.2603	0.4443	0.75	0.118
Mof_N 	N 	0.2922	0.3223	0.75	-0.874
Mof_O 	O 	0.2345	0.3629	0.75	-0.642
Mof_C 	C 	0.2798	0.3712	0.75	0.56
Mof_C 	C 	0.266	0.252	0.75	-0.524
Mof_C 	C 	0.2555	0.588	0.75	-0.001
Mof_N 	N 	0.1793	0.5144	0.75	-0.264
Mof_C 	C 	0.184	0.4443	0.75	0.118
Mof_N 	N 	0.0301	0.3223	0.75	-0.873
Mof_O 	O 	0.1284	0.3629	0.75	-0.642
Mof_C 	C 	0.0914	0.3712	0.75	0.56
Mof_C 	C 	0.986	0.252	0.75	-0.524
Mof_C 	C 	0.3325	0.7445	0.75	-0.001
Mof_N 	N 	0.3351	0.8207	0.75	-0.264
Mof_C 	C 	0.2603	0.816	0.75	0.118
Mof_N 	N 	0.2922	0.9699	0.75	-0.873
Mof_O 	O 	0.2345	0.8716	0.75	-0.642
Mof_C 	C 	0.2798	0.9086	0.75	0.561
Mof_C 	C 	0.266	0.014	0.75	-0.524
Mof_C 	C 	0.412	0.6675	0.75	-0.001
Mof_N 	N 	0.4856	0.6649	0.75	-0.264
Mof_C 	C 	0.5557	0.7397	0.75	0.118
Mof_N 	N 	0.6777	0.7078	0.75	-0.874
Mof_O 	O 	0.6371	0.7655	0.75	-0.642
Mof_C 	C 	0.6288	0.7202	0.75	0.56
Mof_C 	C 	0.748	0.734	0.75	-0.524
Mof_C 	C 	0.7445	0.412	0.25	-0.001
Mof_N 	N 	0.8207	0.4856	0.25	-0.264
Mof_C 	C 	0.816	0.5557	0.25	0.118
Mof_N 	N 	0.9699	0.6777	0.25	-0.873
Mof_O 	O 	0.8716	0.6371	0.25	-0.642
Mof_C 	C 	0.9086	0.6288	0.25	0.56
Mof_C 	C 	0.014	0.748	0.25	-0.524
Mof_C 	C 	0.6675	0.2555	0.25	-0.001
Mof_N 	N 	0.6649	0.1793	0.25	-0.264
Mof_C 	C 	0.7397	0.184	0.25	0.118
Mof_N 	N 	0.7078	0.0301	0.25	-0.873
Mof_O 	O 	0.7655	0.1284	0.25	-0.642
Mof_C 	C 	0.7202	0.0914	0.25	0.561
Mof_C 	C 	0.734	0.986	0.25	-0.524
Mof_C 	C 	0.588	0.3325	0.25	-0.001
Mof_N 	N 	0.5144	0.3351	0.25	-0.264
Mof_C 	C 	0.4443	0.2603	0.25	0.118
Mof_N 	N 	0.3223	0.2922	0.25	-0.874
Mof_O 	O 	0.3629	0.2345	0.25	-0.642
Mof_C 	C 	0.3712	0.2798	0.25	0.56
Mof_C 	C 	0.252	0.266	0.25	-0.524
Mof_C 	C 	0.50895	0.0179	0.0588	-0.272
Mof_C 	C 	0.9821	0.49105	0.0588	-0.272
Mof_C 	C 	0.50895	0.49105	0.0588	-0.272
Mof_C 	C 	0.49105	0.9821	0.5588	-0.272
Mof_C 	C 	0.0179	0.50895	0.5588	-0.272
Mof_C 	C 	0.49105	0.50895	0.5588	-0.272
Mof_C 	C 	0.0179	0.50895	0.9412	-0.272
Mof_C 	C 	0.49105	0.9821	0.9412	-0.272
Mof_C 	C 	0.49105	0.50895	0.9412	-0.272
Mof_C 	C 	0.9821	0.49105	0.4412	-0.272
Mof_C 	C 	0.50895	0.0179	0.4412	-0.272
Mof_C 	C 	0.50895	0.49105	0.4412	-0.272
_end
