data_functionalizedCrystal
_audit_creation_method	'EQeq! by Chris Wilmer'
_symmetry_space_group_name_H-M	'P1'
_symmetry_Int_Tables_number	1
_symmetry_cell_setting	triclinic
loop_
_symmetry_equiv_pos_as_xyz
  x,y,z
_cell_length_a	21.6266
_cell_length_b	21.6266
_cell_length_c	21.6266
_cell_angle_alpha	60
_cell_angle_beta	60
_cell_angle_gamma	60
loop_
_atom_site_label
_atom_site_type_symbol
_atom_site_fract_x
_atom_site_fract_y
_atom_site_fract_z
_atom_site_charge
Mof_Ni	Ni	0.85849	0.04717	0.04717	1.062
Mof_Ni	Ni	0.14151	0.95283	0.95283	1.059
Mof_Ni	Ni	0.04717	0.04717	0.85849	1.063
Mof_Ni	Ni	0.04717	0.85849	0.04717	1.063
Mof_Ni	Ni	0.95283	0.14151	0.95283	1.059
Mof_Ni	Ni	0.95283	0.95283	0.95283	1.056
Mof_Ni	Ni	0.95283	0.95283	0.14151	1.059
Mof_Ni	Ni	0.04717	0.04717	0.04717	1.063
Mof_H 	H 	0.13071	0.97699	0.44615	0.074
Mof_H 	H 	0.97699	0.13071	0.44615	0.074
Mof_H 	H 	0.13071	0.44615	0.97699	0.074
Mof_H 	H 	0.02301	0.55385	0.86929	0.074
Mof_H 	H 	0.1888	0.06631	0.06631	0.068
Mof_H 	H 	0.06631	0.67858	0.1888	0.067
Mof_H 	H 	0.905	0.095	0.095	0.102
Mof_H 	H 	0.02301	0.86929	0.55385	0.074
Mof_H 	H 	0.55385	0.86929	0.55385	0.071
Mof_H 	H 	0.32142	0.93369	0.8112	0.067
Mof_H 	H 	0.55385	0.86929	0.02301	0.074
Mof_H 	H 	0.93369	0.93369	0.8112	0.069
Mof_H 	H 	0.97699	0.44615	0.13071	0.074
Mof_H 	H 	0.55385	0.02301	0.55385	0.077
Mof_H 	H 	0.8112	0.93369	0.32142	0.067
Mof_H 	H 	0.55385	0.02301	0.86929	0.074
Mof_H 	H 	0.32142	0.8112	0.93369	0.067
Mof_H 	H 	0.44615	0.97699	0.44615	0.071
Mof_H 	H 	0.1888	0.67858	0.06631	0.067
Mof_H 	H 	0.06631	0.06631	0.67858	0.069
Mof_H 	H 	0.86929	0.02301	0.55385	0.074
Mof_H 	H 	0.93369	0.8112	0.93369	0.069
Mof_H 	H 	0.1888	0.06631	0.67858	0.067
Mof_H 	H 	0.8112	0.32142	0.93369	0.067
Mof_H 	H 	0.44615	0.44615	0.97699	0.071
Mof_H 	H 	0.67858	0.06631	0.06631	0.069
Mof_H 	H 	0.32142	0.93369	0.93369	0.068
Mof_H 	H 	0.97699	0.44615	0.44615	0.071
Mof_H 	H 	0.905	0.905	0.095	0.101
Mof_H 	H 	0.06631	0.1888	0.06631	0.068
Mof_H 	H 	0.44615	0.13071	0.97699	0.074
Mof_H 	H 	0.095	0.905	0.095	0.102
Mof_H 	H 	0.44615	0.13071	0.44615	0.077
Mof_H 	H 	0.095	0.905	0.905	0.101
Mof_H 	H 	0.55385	0.55385	0.02301	0.077
Mof_H 	H 	0.93369	0.32142	0.8112	0.067
Mof_H 	H 	0.67858	0.06631	0.1888	0.067
Mof_H 	H 	0.02301	0.55385	0.55385	0.077
Mof_H 	H 	0.13071	0.44615	0.44615	0.077
Mof_H 	H 	0.93369	0.93369	0.32142	0.068
Mof_H 	H 	0.44615	0.44615	0.13071	0.077
Mof_H 	H 	0.44615	0.97699	0.13071	0.074
Mof_H 	H 	0.905	0.095	0.905	0.101
Mof_H 	H 	0.8112	0.93369	0.93369	0.069
Mof_H 	H 	0.095	0.095	0.905	0.102
Mof_H 	H 	0.93369	0.8112	0.32142	0.067
Mof_H 	H 	0.93369	0.32142	0.93369	0.068
Mof_H 	H 	0.67858	0.1888	0.06631	0.067
Mof_H 	H 	0.86929	0.55385	0.02301	0.074
Mof_H 	H 	0.06631	0.1888	0.67858	0.067
Mof_H 	H 	0.55385	0.55385	0.86929	0.071
Mof_H 	H 	0.86929	0.55385	0.55385	0.071
Mof_H 	H 	0.06631	0.06631	0.1888	0.068
Mof_H 	H 	0.06631	0.67858	0.06631	0.069
Mof_C 	C 	0.07765	0.46801	0.98633	-0.008
Mof_C 	C 	0.40909	0.64267	0.93718	0.156
Mof_C 	C 	0.72069	0	-0	0.145
Mof_C 	C 	0.07765	0.98633	0.46801	-0.008
Mof_C 	C 	0.64267	0.40909	0.01106	0.155
Mof_C 	C 	0.93718	0.40909	0.64267	0.156
Mof_C 	C 	0.96118	0.00683	0.46033	-0.022
Mof_C 	C 	0.93718	0.64267	0.01106	0.155
Mof_C 	C 	-0	0.72069	-0	0.145
Mof_C 	C 	0.46033	0.96118	0.57166	-0.033
Mof_C 	C 	0.96118	0.57166	0.46033	-0.033
Mof_C 	C 	0.7217	0.20476	0.03677	-0.023
Mof_C 	C 	0.01366	0.53199	0.92236	-0.008
Mof_C 	C 	0.92235	0.01367	0.53199	-0.008
Mof_C 	C 	0.96118	0.57166	0.00683	-0.022
Mof_C 	C 	0.01366	0.92236	0.53199	-0.008
Mof_C 	C 	0.2783	0.96323	0.79524	-0.03
Mof_C 	C 	0.46802	0.46801	0.07764	-0.016
Mof_C 	C 	0.20476	0.03677	0.03677	-0.024
Mof_C 	C 	0.20476	0.03677	0.7217	-0.023
Mof_C 	C 	0.00683	0.57166	0.46033	-0.011
Mof_C 	C 	0.35733	0.06282	0.98894	0.156
Mof_C 	C 	0.57166	0.96118	0.00683	-0.022
Mof_C 	C 	0.92235	0.53199	0.01367	-0.008
Mof_C 	C 	0.46802	0.98633	0.46801	-0
Mof_C 	C 	0.72069	0.27931	-0	0.135
Mof_C 	C 	0.96118	0.46033	0.57166	-0.033
Mof_C 	C 	0.27931	0	-0	0.14
Mof_C 	C 	0.20476	0.7217	0.03677	-0.023
Mof_C 	C 	0.42834	0.03882	0.99317	-0.022
Mof_C 	C 	0.35733	0.98894	0.59091	0.156
Mof_C 	C 	0.03677	0.20476	0.03677	-0.024
Mof_C 	C 	0.99317	0.53967	0.03882	-0.022
Mof_C 	C 	0.64267	0.93718	0.40909	0.156
Mof_C 	C 	0.98894	0.06282	0.59091	0.155
Mof_C 	C 	0.03677	0.7217	0.03677	-0.025
Mof_C 	C 	0.57166	0.46033	0.00683	-0.011
Mof_C 	C 	0.46802	0.07764	0.46801	-0.016
Mof_C 	C 	0.99317	0.03882	0.53967	-0.022
Mof_C 	C 	0.03882	0.53967	0.42834	-0.011
Mof_C 	C 	0.40909	0.93718	0.64267	0.156
Mof_C 	C 	0.06282	0.59091	0.98894	0.155
Mof_C 	C 	0.98894	0.35733	0.59091	0.156
Mof_C 	C 	0.72069	0	0.27931	0.135
Mof_C 	C 	0.79524	0.96323	0.2783	-0.03
Mof_C 	C 	0.98634	0.46801	0.46801	-0
Mof_C 	C 	0.57166	0.96118	0.46033	-0.033
Mof_C 	C 	0.46033	0.00683	0.57166	-0.011
Mof_C 	C 	0.98894	0.59091	0.35733	0.156
Mof_C 	C 	0.40909	0.01106	0.64267	0.155
Mof_C 	C 	0.53198	0.53199	0.01367	-0.015
Mof_C 	C 	0.03677	0.03677	0.7217	-0.025
Mof_C 	C 	0.35733	0.59091	0.98894	0.156
Mof_C 	C 	0.93718	0.01106	0.64267	0.155
Mof_C 	C 	0.01106	0.64267	0.93718	0.155
Mof_C 	C 	0.53198	0.01367	0.53199	-0.015
Mof_C 	C 	0.06282	0.35733	0.59091	0.154
Mof_C 	C 	0.93718	0.01106	0.40909	0.156
Mof_C 	C 	0.06282	0.59091	0.35733	0.154
Mof_C 	C 	0.53198	0.92236	0.53199	-0.001
Mof_C 	C 	0.06282	0.98894	0.59091	0.155
Mof_C 	C 	0.96323	0.2783	0.79524	-0.03
Mof_C 	C 	0.98634	0.07764	0.46801	-0.008
Mof_C 	C 	0.57166	0.00683	0.96118	-0.022
Mof_C 	C 	0.96323	0.2783	0.96323	-0.036
Mof_C 	C 	0.59091	0.06282	0.98894	0.155
Mof_C 	C 	0.00683	0.46033	0.96118	-0.022
Mof_C 	C 	0.01106	0.93718	0.64267	0.155
Mof_C 	C 	0.96323	0.79524	0.2783	-0.03
Mof_C 	C 	0.42834	0.99317	0.03882	-0.022
Mof_C 	C 	0.01106	0.40909	0.93718	0.156
Mof_C 	C 	0.96118	0.00683	0.57166	-0.022
Mof_C 	C 	0.93718	0.40909	0.01106	0.156
Mof_C 	C 	0.64267	0.40909	0.93718	0.156
Mof_C 	C 	0.03882	0.99317	0.53967	-0.022
Mof_C 	C 	0.46033	0.57166	0.96118	-0.033
Mof_C 	C 	0.57166	0.00683	0.46033	-0.011
Mof_C 	C 	0.01366	0.53199	0.53199	-0.015
Mof_C 	C 	0.98894	0.35733	0.06282	0.156
Mof_C 	C 	0.53967	0.03882	0.42834	-0.011
Mof_C 	C 	0.53967	0.03882	0.99317	-0.022
Mof_C 	C 	0.59091	0.98894	0.35733	0.156
Mof_C 	C 	0.96323	0.79524	0.96323	-0.042
Mof_C 	C 	0.03677	0.7217	0.20476	-0.023
Mof_C 	C 	0.7217	0.03677	0.03677	-0.025
Mof_C 	C 	0.46033	0.96118	0.00683	-0.022
Mof_C 	C 	0.96323	0.96323	0.2783	-0.036
Mof_C 	C 	0.99317	0.03882	0.42834	-0.022
Mof_C 	C 	0.03677	0.20476	0.7217	-0.023
Mof_C 	C 	0.53967	0.99317	0.42834	-0.033
Mof_C 	C 	0.07765	0.46801	0.46801	-0.016
Mof_C 	C 	-0	0.27931	-0	0.14
Mof_C 	C 	0.98894	0.06282	0.35733	0.156
Mof_C 	C 	0.53967	0.42834	0.99317	-0.033
Mof_C 	C 	0.99317	0.42834	0.53967	-0.033
Mof_C 	C 	0.03882	0.53967	0.99317	-0.022
Mof_C 	C 	0.42834	0.53967	0.03882	-0.011
Mof_C 	C 	0.06282	0.98894	0.35733	0.156
Mof_C 	C 	0.53198	0.01367	0.92236	-0.008
Mof_C 	C 	0.46802	0.46801	0.98633	-0
Mof_C 	C 	0.27931	3.179e-17	0.72069	0.135
Mof_C 	C 	1.5895e-17	0.27931	0.72069	0.135
Mof_C 	C 	0.46802	0.98633	0.07764	-0.008
Mof_C 	C 	0.64267	0.01106	0.93718	0.155
Mof_C 	C 	0.99317	0.53967	0.42834	-0.033
Mof_C 	C 	0.03882	0.99317	0.42834	-0.022
Mof_C 	C 	0.42834	0.03882	0.53967	-0.011
Mof_C 	C 	0.98634	0.46801	0.07764	-0.008
Mof_C 	C 	-7.15275e-17	0.72069	0.27931	0.135
Mof_C 	C 	0.92235	0.53199	0.53199	-0.001
Mof_C 	C 	0.42834	0.99317	0.53967	-0.033
Mof_C 	C 	-7.9475e-18	0	0.27931	0.14
Mof_C 	C 	0.27931	0.72069	-0	0.135
Mof_C 	C 	0.64267	0.01106	0.40909	0.155
Mof_C 	C 	0.06282	0.35733	0.98894	0.156
Mof_C 	C 	0.96323	0.96323	0.79524	-0.042
Mof_C 	C 	0.99317	0.42834	0.03882	-0.022
Mof_C 	C 	0.96118	0.46033	0.00683	-0.022
Mof_C 	C 	0.03677	0.03677	0.20476	-0.024
Mof_C 	C 	0.79524	0.2783	0.96323	-0.03
Mof_C 	C 	0.01106	0.93718	0.40909	0.156
Mof_C 	C 	0.46033	0.00683	0.96118	-0.022
Mof_C 	C 	0.59091	0.98894	0.06282	0.155
Mof_C 	C 	0.7217	0.03677	0.20476	-0.023
Mof_C 	C 	0.53198	0.92236	0.01367	-0.008
Mof_C 	C 	0.64267	0.93718	0.01106	0.155
Mof_C 	C 	0.35733	0.59091	0.06282	0.154
Mof_C 	C 	0.53198	0.53199	0.92236	-0.001
Mof_C 	C 	0.42834	0.53967	0.99317	-0.033
Mof_C 	C 	0.35733	0.98894	0.06282	0.156
Mof_C 	C 	0.00683	0.57166	0.96118	-0.022
Mof_C 	C 	0.59091	0.35733	0.98894	0.156
Mof_C 	C 	0.01106	0.40909	0.64267	0.155
Mof_C 	C 	0.79524	0.96323	0.96323	-0.042
Mof_C 	C 	0.57166	0.46033	0.96118	-0.033
Mof_C 	C 	0.40909	0.93718	0.01106	0.156
Mof_C 	C 	4.7685e-17	3.179e-17	0.72069	0.145
Mof_C 	C 	0.01106	0.64267	0.40909	0.155
Mof_C 	C 	0.59091	0.35733	0.06282	0.154
Mof_C 	C 	0.2783	0.79524	0.96323	-0.03
Mof_C 	C 	0.53967	0.42834	0.03882	-0.011
Mof_C 	C 	0.03882	0.42834	0.99317	-0.022
Mof_C 	C 	0.53967	0.99317	0.03882	-0.022
Mof_C 	C 	0.2783	0.96323	0.96323	-0.036
Mof_C 	C 	0.59091	0.06282	0.35733	0.154
Mof_C 	C 	0.40909	0.01106	0.93718	0.156
Mof_C 	C 	0.98894	0.59091	0.06282	0.155
Mof_C 	C 	0.46033	0.57166	0.00683	-0.011
Mof_C 	C 	0.00683	0.96118	0.57166	-0.022
Mof_C 	C 	0.40909	0.64267	0.01106	0.155
Mof_C 	C 	0.03882	0.42834	0.53967	-0.011
Mof_C 	C 	0.00683	0.96118	0.46033	-0.022
Mof_C 	C 	0.00683	0.46033	0.57166	-0.011
Mof_C 	C 	0.93718	0.64267	0.40909	0.156
Mof_C 	C 	0.35733	0.06282	0.59091	0.154
Mof_C 	C 	0.46802	0.07764	0.98633	-0.008
Mof_N 	N 	0.97727	0.20313	0.84232	-0.206
Mof_N 	N 	0.15769	0.02272	0.02272	-0.201
Mof_N 	N 	0.02273	0.15768	0.79687	-0.202
Mof_N 	N 	0.65457	0.34543	-0	-0.195
Mof_N 	N 	0.20312	0.97728	0.84232	-0.206
Mof_N 	N 	7.9475e-18	0.65457	0.34543	-0.195
Mof_N 	N 	0.84231	0.97728	0.97728	-0.209
Mof_N 	N 	0.97727	0.97728	0.84232	-0.209
Mof_N 	N 	0.97727	0.84232	0.20313	-0.206
Mof_N 	N 	0.20312	0.97728	0.97728	-0.207
Mof_N 	N 	0.97727	0.20313	0.97728	-0.207
Mof_N 	N 	1.5895e-17	0.34543	0.65457	-0.195
Mof_N 	N 	0.97727	0.84232	0.97728	-0.209
Mof_N 	N 	1.5895e-17	0	0.65457	-0.195
Mof_N 	N 	0.79688	0.02272	0.02272	-0.198
Mof_N 	N 	0.02273	0.79687	0.02272	-0.198
Mof_N 	N 	0.65457	0	-0	-0.195
Mof_N 	N 	0.34543	0.65457	-0	-0.195
Mof_N 	N 	0.20312	0.84232	0.97728	-0.206
Mof_N 	N 	0.34543	0	-0	-0.195
Mof_N 	N 	0.84231	0.97728	0.20313	-0.206
Mof_N 	N 	0.15769	0.02272	0.79687	-0.202
Mof_N 	N 	0.02273	0.79687	0.15768	-0.202
Mof_N 	N 	0.34543	0	0.65457	-0.195
Mof_N 	N 	0.97727	0.97728	0.20313	-0.207
Mof_N 	N 	0.02273	0.15768	0.02272	-0.201
Mof_N 	N 	-0	0.65457	-0	-0.195
Mof_N 	N 	0.84231	0.20313	0.97728	-0.206
Mof_N 	N 	0.02273	0.02272	0.15768	-0.201
Mof_N 	N 	0.79688	0.15768	0.02272	-0.202
Mof_N 	N 	-0	0.34543	-0	-0.195
Mof_N 	N 	0.79688	0.02272	0.15768	-0.202
Mof_N 	N 	-2.38425e-17	-1.5895e-17	0.34543	-0.195
Mof_N 	N 	0.02273	0.02272	0.79687	-0.198
Mof_N 	N 	0.65457	-1.5895e-17	0.34543	-0.195
Mof_N 	N 	0.15769	0.79687	0.02272	-0.202
Mof_O 	O 	0.12604	0.58187	0.31428	-0.169
Mof_O 	O 	0.9393	0.9393	0.0607	-0.714
Mof_O 	O 	0.87396	0.41813	0.68572	-0.172
Mof_O 	O 	0.58187	0.12604	0.31428	-0.169
Mof_O 	O 	0.41813	0.02219	0.68572	-0.168
Mof_O 	O 	0.68572	0.87396	0.41813	-0.172
Mof_O 	O 	0.68572	0.87396	0.02219	-0.169
Mof_O 	O 	0.12604	0.58187	0.97781	-0.171
Mof_O 	O 	0.41813	0.87396	0.68572	-0.172
Mof_O 	O 	0.97781	0.12604	0.31428	-0.171
Mof_O 	O 	0.58187	0.97781	0.12604	-0.171
Mof_O 	O 	0.87396	0.41813	0.02219	-0.169
Mof_O 	O 	0.12604	0.97781	0.31428	-0.171
Mof_O 	O 	0.41813	0.02219	0.87396	-0.169
Mof_O 	O 	0.68572	0.41813	0.87396	-0.172
Mof_O 	O 	0.0607	0.0607	0.9393	-0.71
Mof_O 	O 	0.31428	0.58187	0.97781	-0.172
Mof_O 	O 	0.58187	0.31428	0.97781	-0.172
Mof_O 	O 	0.31428	0.97781	0.12604	-0.171
Mof_O 	O 	0.0607	0.9393	0.9393	-0.714
Mof_O 	O 	0.87396	0.68572	0.41813	-0.172
Mof_O 	O 	0.97781	0.58187	0.31428	-0.172
Mof_O 	O 	0.97781	0.31428	0.58187	-0.172
Mof_O 	O 	0.41813	0.68572	0.87396	-0.172
Mof_O 	O 	0.68572	0.41813	0.02219	-0.168
Mof_O 	O 	0.87396	0.68572	0.02219	-0.169
Mof_O 	O 	0.31428	0.58187	0.12604	-0.169
Mof_O 	O 	0.58187	0.31428	0.12604	-0.169
Mof_O 	O 	0.12604	0.97781	0.58187	-0.171
Mof_O 	O 	0.12604	0.31428	0.97781	-0.171
Mof_O 	O 	0.02219	0.41813	0.87396	-0.169
Mof_O 	O 	0.58187	0.97781	0.31428	-0.172
Mof_O 	O 	0.12604	0.31428	0.58187	-0.169
Mof_O 	O 	0.02219	0.68572	0.41813	-0.168
Mof_O 	O 	0.9393	0.0607	0.9393	-0.714
Mof_O 	O 	0.87396	0.02219	0.68572	-0.169
Mof_O 	O 	0.97781	0.12604	0.58187	-0.171
Mof_O 	O 	0.02219	0.87396	0.68572	-0.169
Mof_O 	O 	0.68572	0.02219	0.87396	-0.169
Mof_O 	O 	0.41813	0.68572	0.02219	-0.168
Mof_O 	O 	0.31428	0.12604	0.97781	-0.171
Mof_O 	O 	0.97781	0.58187	0.12604	-0.171
Mof_O 	O 	0.0607	0.9393	0.0607	-0.71
Mof_O 	O 	0.31428	0.12604	0.58187	-0.169
Mof_O 	O 	0.58187	0.12604	0.97781	-0.171
Mof_O 	O 	0.97781	0.31428	0.12604	-0.171
Mof_O 	O 	0.9393	0.0607	0.0607	-0.71
Mof_O 	O 	0.87396	0.02219	0.41813	-0.169
Mof_O 	O 	0.31428	0.97781	0.58187	-0.172
Mof_O 	O 	0.68572	0.02219	0.41813	-0.168
Mof_O 	O 	0.02219	0.68572	0.87396	-0.169
Mof_O 	O 	0.41813	0.87396	0.02219	-0.169
Mof_O 	O 	0.02219	0.41813	0.68572	-0.168
Mof_O 	O 	0.02219	0.87396	0.41813	-0.169
_end
