# CIF file generated by openbabel 2.4.1, see http://openbabel.sf.net
data_I
_chemical_name_common 'image0'
_cell_length_a 16.6901
_cell_length_b 16.6901
_cell_length_c 14.0567
_cell_angle_alpha 90
_cell_angle_beta 90
_cell_angle_gamma 90
_space_group_name_H-M_alt 'P 1'
_space_group_name_Hall 'P 1'
loop_
    _symmetry_equiv_pos_as_xyz
    x,y,z
loop_
    _atom_site_label
    _atom_site_type_symbol
    _atom_site_fract_x
    _atom_site_fract_y
    _atom_site_fract_z
    _atom_site_occupancy
    C1      C    0.06210   0.97410   0.20200   1.000
    H1      H    0.10650   0.95550   0.23540   1.000
    C2      C    0.06500   0.97310   0.10280   1.000
    H2      H    0.11030   0.95450   0.07140   1.000
    C3      C    0.93790   0.02590   0.20200   1.000
    H3      H    0.89350   0.04450   0.23540   1.000
    C4      C    0.93500   0.02690   0.10280   1.000
    H4      H    0.88970   0.04550   0.07140   1.000
    C5      C    0.02590   0.06210   0.20200   1.000
    H5      H    0.04450   0.10650   0.23540   1.000
    C6      C    0.02690   0.06500   0.10280   1.000
    H6      H    0.04550   0.11030   0.07140   1.000
    C7      C    0.97410   0.93790   0.20200   1.000
    H7      H    0.95550   0.89350   0.23540   1.000
    C8      C    0.97310   0.93500   0.10280   1.000
    H8      H    0.95450   0.88970   0.07140   1.000
    C9      C    0.93790   0.97410   0.79800   1.000
    H9      H    0.89350   0.95550   0.76460   1.000
    C10     C    0.93500   0.97310   0.89720   1.000
    H10     H    0.88970   0.95450   0.92860   1.000
    C11     C    0.06210   0.02590   0.79800   1.000
    H11     H    0.10650   0.04450   0.76460   1.000
    C12     C    0.06500   0.02690   0.89720   1.000
    H12     H    0.11030   0.04550   0.92860   1.000
    C13     C    0.97410   0.06210   0.79800   1.000
    H13     H    0.95550   0.10650   0.76460   1.000
    C14     C    0.97310   0.06500   0.89720   1.000
    H14     H    0.95450   0.11030   0.92860   1.000
    C15     C    0.02590   0.93790   0.79800   1.000
    H15     H    0.04450   0.89350   0.76460   1.000
    C16     C    0.02690   0.93500   0.89720   1.000
    H16     H    0.04550   0.88970   0.92860   1.000
    C17     C    0.93790   0.02590   0.79800   1.000
    H17     H    0.89350   0.04450   0.76460   1.000
    C18     C    0.93500   0.02690   0.89720   1.000
    H18     H    0.88970   0.04550   0.92860   1.000
    C19     C    0.06210   0.97410   0.79800   1.000
    H19     H    0.10650   0.95550   0.76460   1.000
    C20     C    0.06500   0.97310   0.89720   1.000
    H20     H    0.11030   0.95450   0.92860   1.000
    C21     C    0.97410   0.93790   0.79800   1.000
    H21     H    0.95550   0.89350   0.76460   1.000
    C22     C    0.97310   0.93500   0.89720   1.000
    H22     H    0.95450   0.88970   0.92860   1.000
    C23     C    0.02590   0.06210   0.79800   1.000
    H23     H    0.04450   0.10650   0.76460   1.000
    C24     C    0.02690   0.06500   0.89720   1.000
    H24     H    0.04550   0.11030   0.92860   1.000
    C25     C    0.06210   0.02590   0.20200   1.000
    H25     H    0.10650   0.04450   0.23540   1.000
    C26     C    0.06500   0.02690   0.10280   1.000
    H26     H    0.11030   0.04550   0.07140   1.000
    C27     C    0.93790   0.97410   0.20200   1.000
    H27     H    0.89350   0.95550   0.23540   1.000
    C28     C    0.93500   0.97310   0.10280   1.000
    H28     H    0.88970   0.95450   0.07140   1.000
    C29     C    0.02590   0.93790   0.20200   1.000
    H29     H    0.04450   0.89350   0.23540   1.000
    C30     C    0.02690   0.93500   0.10280   1.000
    H30     H    0.04550   0.88970   0.07140   1.000
    C31     C    0.97410   0.06210   0.20200   1.000
    H31     H    0.95550   0.10650   0.23540   1.000
    C32     C    0.97310   0.06500   0.10280   1.000
    H32     H    0.95450   0.11030   0.07140   1.000
    V1      V    0.50000   0.50000   0.53560   1.000
    V2      V    0.50000   0.50000   0.46440   1.000
    Zn1     Zn   0.00000   0.00000   0.39567   1.000
    N1      N    0.00000   0.00000   0.25082   1.000
    C33     C    0.00000   0.00000   0.05260   1.000
    Zn2     Zn   0.00000   0.00000   0.60433   1.000
    N2      N    0.00000   0.00000   0.74918   1.000
    C34     C    0.00000   0.00000   0.94740   1.000
    O1      O    0.91515   0.91515   0.42135   1.000
    C35     C    0.73911   0.73911   0.58308   1.000
    H33     H    0.71970   0.71970   0.64060   1.000
    C36     C    0.79787   0.79787   0.58353   1.000
    H34     H    0.81730   0.81730   0.64110   1.000
    O2      O    0.08485   0.08485   0.42135   1.000
    C37     C    0.26089   0.26089   0.58308   1.000
    H35     H    0.28030   0.28030   0.64060   1.000
    C38     C    0.20213   0.20213   0.58353   1.000
    H36     H    0.18270   0.18270   0.64110   1.000
    O3      O    0.08485   0.91515   0.42135   1.000
    C39     C    0.26089   0.73911   0.58308   1.000
    H37     H    0.28030   0.71970   0.64060   1.000
    C40     C    0.20213   0.79787   0.58353   1.000
    H38     H    0.18270   0.81730   0.64110   1.000
    O4      O    0.91515   0.08485   0.42135   1.000
    C41     C    0.73911   0.26089   0.58308   1.000
    H39     H    0.71970   0.28030   0.64060   1.000
    C42     C    0.79787   0.20213   0.58353   1.000
    H40     H    0.81730   0.18270   0.64110   1.000
    O5      O    0.08485   0.91515   0.57865   1.000
    C43     C    0.26089   0.73911   0.41692   1.000
    H41     H    0.28030   0.71970   0.35940   1.000
    C44     C    0.20213   0.79787   0.41647   1.000
    H42     H    0.18270   0.81730   0.35890   1.000
    O6      O    0.91515   0.08485   0.57865   1.000
    C45     C    0.73911   0.26089   0.41692   1.000
    H43     H    0.71970   0.28030   0.35940   1.000
    C46     C    0.79787   0.20213   0.41647   1.000
    H44     H    0.81730   0.18270   0.35890   1.000
    O7      O    0.91515   0.91515   0.57865   1.000
    C47     C    0.73911   0.73911   0.41692   1.000
    H45     H    0.71970   0.71970   0.35940   1.000
    C48     C    0.79787   0.79787   0.41647   1.000
    H46     H    0.81730   0.81730   0.35890   1.000
    O8      O    0.08485   0.08485   0.57865   1.000
    C49     C    0.26089   0.26089   0.41692   1.000
    H47     H    0.28030   0.28030   0.35940   1.000
    C50     C    0.20213   0.20213   0.41647   1.000
    H48     H    0.18270   0.18270   0.35890   1.000
    N3      N    0.50000   0.62110   0.50000   1.000
    N4      N    0.50000   0.37890   0.50000   1.000
    N5      N    0.37890   0.50000   0.50000   1.000
    N6      N    0.62110   0.50000   0.50000   1.000
    C51     C    0.56609   0.67076   0.50000   1.000
    C52     C    0.54034   0.75271   0.50000   1.000
    H49     H    0.57330   0.79760   0.50000   1.000
    C53     C    0.43391   0.32924   0.50000   1.000
    C54     C    0.45966   0.24729   0.50000   1.000
    H50     H    0.42670   0.20240   0.50000   1.000
    C55     C    0.32924   0.56609   0.50000   1.000
    C56     C    0.24729   0.54034   0.50000   1.000
    H51     H    0.20240   0.57330   0.50000   1.000
    C57     C    0.67076   0.43391   0.50000   1.000
    C58     C    0.75271   0.45966   0.50000   1.000
    H52     H    0.79760   0.42670   0.50000   1.000
    C59     C    0.43391   0.67076   0.50000   1.000
    C60     C    0.45966   0.75271   0.50000   1.000
    H53     H    0.42670   0.79760   0.50000   1.000
    C61     C    0.56609   0.32924   0.50000   1.000
    C62     C    0.54034   0.24729   0.50000   1.000
    H54     H    0.57330   0.20240   0.50000   1.000
    C63     C    0.67076   0.56609   0.50000   1.000
    C64     C    0.75271   0.54034   0.50000   1.000
    H55     H    0.79760   0.57330   0.50000   1.000
    C65     C    0.32924   0.43391   0.50000   1.000
    C66     C    0.24729   0.45966   0.50000   1.000
    H56     H    0.20240   0.42670   0.50000   1.000
    C67     C    0.64602   0.64602   0.50000   1.000
    C68     C    0.70918   0.70918   0.50000   1.000
    C69     C    0.82756   0.82756   0.50000   1.000
    C70     C    0.89105   0.89105   0.50000   1.000
    C71     C    0.35398   0.35398   0.50000   1.000
    C72     C    0.29082   0.29082   0.50000   1.000
    C73     C    0.17244   0.17244   0.50000   1.000
    C74     C    0.10895   0.10895   0.50000   1.000
    C75     C    0.35398   0.64602   0.50000   1.000
    C76     C    0.29082   0.70918   0.50000   1.000
    C77     C    0.17244   0.82756   0.50000   1.000
    C78     C    0.10895   0.89105   0.50000   1.000
    C79     C    0.64602   0.35398   0.50000   1.000
    C80     C    0.70918   0.29082   0.50000   1.000
    C81     C    0.82756   0.17244   0.50000   1.000
    C82     C    0.89105   0.10895   0.50000   1.000
