data_functionalizedCrystal
_audit_creation_method	'EQeq! by Chris Wilmer'
_symmetry_space_group_name_H-M	'P1'
_symmetry_Int_Tables_number	1
_symmetry_cell_setting	triclinic
loop_
_symmetry_equiv_pos_as_xyz
  x,y,z
_cell_length_a	4.978
_cell_length_b	8.189
_cell_length_c	12
_cell_angle_alpha	90
_cell_angle_beta	90
_cell_angle_gamma	91.97
loop_
_atom_site_label
_atom_site_type_symbol
_atom_site_fract_x
_atom_site_fract_y
_atom_site_fract_z
_atom_site_charge
Mof_Al	Al	0.5	6.45432e-33	0.5	3.215
Mof_Al	Al	0.5	0	-0	2.223
Mof_Al	Al	0.7584	0.8551	0.75	4.607
Mof_Al	Al	0.2416	0.1449	0.25	3.79
Mof_P 	P 	0.9948	0.7678	0.51474	0.753
Mof_P 	P 	0.0052	0.2322	0.01474	0.371
Mof_P 	P 	0.0052	0.2322	0.48526	0.78
Mof_P 	P 	0.9948	0.7678	0.98526	0.975
Mof_H 	H 	0.9643	0.557	0.3883	0.062
Mof_H 	H 	0.7253	0.539	0.4813	0.056
Mof_H 	H 	0.0357	0.443	0.8883	-0.097
Mof_H 	H 	0.2747	0.461	0.9813	-0.052
Mof_H 	H 	0.0357	0.443	0.6117	0.007
Mof_H 	H 	0.2747	0.461	0.5187	0.012
Mof_H 	H 	0.9643	0.557	0.1117	0.161
Mof_H 	H 	0.7253	0.539	0.0187	0.121
Mof_C 	C 	0.9213	0.564	0.4693	-0.281
Mof_C 	C 	0.0787	0.436	0.9693	0.322
Mof_C 	C 	0.0787	0.436	0.5307	-0.105
Mof_C 	C 	0.9213	0.564	0.0307	-0.678
Mof_O 	O 	0.9642	0.767	0.6416	-1.248
Mof_O 	O 	0.797	0.8808	0.4567	-0.591
Mof_O 	O 	0.2836	0.8072	0.4809	-0.604
Mof_O 	O 	0.0358	0.233	0.1416	-1.089
Mof_O 	O 	0.203	0.1192	0.9567	-0.756
Mof_O 	O 	0.7164	0.1928	0.9809	-0.663
Mof_O 	O 	0.0358	0.233	0.3584	-1.135
Mof_O 	O 	0.203	0.1192	0.5433	-1.095
Mof_O 	O 	0.7164	0.1928	0.5191	-1.007
Mof_O 	O 	0.9642	0.767	0.8584	-1.245
Mof_O 	O 	0.797	0.8808	0.0433	-0.519
Mof_O 	O 	0.2836	0.8072	0.0191	-0.565
Mof_F 	F 	0.547	0.9523	0.6469	-1.357
Mof_F 	F 	0.453	0.0477	0.1469	-1.527
Mof_F 	F 	0.453	0.0477	0.3531	-1.65
Mof_F 	F 	0.547	0.9523	0.8531	-1.191
_end
