# CIF file generated by openbabel 2.4.1, see http://openbabel.sf.net
data_I
_chemical_name_common 'cg801267m_si_001_clean'
_cell_length_a 16.6608
_cell_length_b 16.6608
_cell_length_c 17.4287
_cell_angle_alpha 118.553
_cell_angle_beta 118.553
_cell_angle_gamma 90.0001
_space_group_name_H-M_alt 'P 1'
_space_group_name_Hall 'P 1'
loop_
    _symmetry_equiv_pos_as_xyz
    x,y,z
loop_
    _atom_site_label
    _atom_site_type_symbol
    _atom_site_fract_x
    _atom_site_fract_y
    _atom_site_fract_z
    _atom_site_occupancy
    Mn1     Mn   0.00000   0.00000   0.00000   1.000
    Zn1     Zn   0.55633   0.55633   0.11266   1.000
    Zn2     Zn   0.44367   0.44367   0.88734   1.000
    H1      H    0.92200   0.76420   0.61900   1.000
    H2      H    0.69700   0.76420   0.61900   1.000
    H3      H    0.53770   0.59190   0.28740   1.000
    H4      H    0.23580   0.07800   0.38100   1.000
    H5      H    0.14520   0.07800   0.38100   1.000
    H6      H    0.70130   0.07390   0.00000   1.000
    H7      H    0.20800   0.05200   0.19920   1.000
    H8      H    0.21520   0.37630   0.53500   1.000
    H9      H    0.00880   0.85280   0.80080   1.000
    H10     H    0.29590   0.85850   0.15440   1.000
    H11     H    0.69700   0.85480   0.61900   1.000
    H12     H    0.40810   0.25030   0.71260   1.000
    H13     H    0.62370   0.68020   0.46500   1.000
    H14     H    0.70410   0.70410   0.84560   1.000
    H15     H    0.37630   0.21520   0.53500   1.000
    H16     H    0.46230   0.40810   0.71260   1.000
    H17     H    0.76420   0.69700   0.61900   1.000
    H18     H    0.70410   0.14150   0.84560   1.000
    H19     H    0.39540   0.76120   0.15660   1.000
    H20     H    0.68020   0.84130   0.46500   1.000
    H21     H    0.30450   0.46230   0.71260   1.000
    H22     H    0.85280   0.79200   0.80080   1.000
    H23     H    0.79200   0.94800   0.80080   1.000
    H24     H    0.23880   0.23880   0.84340   1.000
    H25     H    0.23880   0.60460   0.84340   1.000
    H26     H    0.25030   0.40810   0.71260   1.000
    H27     H    0.31980   0.37630   0.53500   1.000
    H28     H    0.30300   0.14520   0.38100   1.000
    H29     H    0.85850   0.85850   0.15440   1.000
    H30     H    0.74970   0.59190   0.28740   1.000
    H31     H    0.85280   0.00880   0.80080   1.000
    H32     H    0.00880   0.94800   0.80080   1.000
    H33     H    0.92610   0.29870   0.00000   1.000
    H34     H    0.25030   0.30450   0.71260   1.000
    H35     H    0.69550   0.53770   0.28740   1.000
    H36     H    0.84130   0.78480   0.46500   1.000
    H37     H    0.78480   0.84130   0.46500   1.000
    H38     H    0.07390   0.29870   0.00000   1.000
    H39     H    0.99120   0.14720   0.19920   1.000
    H40     H    0.23580   0.30300   0.38100   1.000
    H41     H    0.79200   0.85280   0.80080   1.000
    H42     H    0.60460   0.60460   0.84340   1.000
    H43     H    0.76120   0.76120   0.15660   1.000
    H44     H    0.39540   0.39540   0.15660   1.000
    H45     H    0.78480   0.62370   0.46500   1.000
    H46     H    0.59190   0.53770   0.28740   1.000
    H47     H    0.14150   0.70410   0.84560   1.000
    H48     H    0.62370   0.78480   0.46500   1.000
    H49     H    0.68020   0.62370   0.46500   1.000
    H50     H    0.76420   0.92200   0.61900   1.000
    H51     H    0.07390   0.70130   0.00000   1.000
    H52     H    0.31980   0.15870   0.53500   1.000
    H53     H    0.53770   0.69550   0.28740   1.000
    H54     H    0.70130   0.92610   0.00000   1.000
    H55     H    0.92610   0.70130   0.00000   1.000
    H56     H    0.21520   0.15870   0.53500   1.000
    H57     H    0.37630   0.31980   0.53500   1.000
    H58     H    0.14520   0.30300   0.38100   1.000
    H59     H    0.30450   0.25030   0.71260   1.000
    H60     H    0.15870   0.21520   0.53500   1.000
    H61     H    0.05200   0.99120   0.19920   1.000
    H62     H    0.94800   0.79200   0.80080   1.000
    H63     H    0.29590   0.29590   0.15440   1.000
    H64     H    0.15870   0.31980   0.53500   1.000
    H65     H    0.84130   0.68020   0.46500   1.000
    H66     H    0.69550   0.74970   0.28740   1.000
    H67     H    0.92200   0.85480   0.61900   1.000
    H68     H    0.07800   0.14520   0.38100   1.000
    H69     H    0.14150   0.14150   0.84560   1.000
    H70     H    0.99120   0.05200   0.19920   1.000
    H71     H    0.40810   0.46230   0.71260   1.000
    H72     H    0.07800   0.23580   0.38100   1.000
    H73     H    0.85480   0.92200   0.61900   1.000
    H74     H    0.59190   0.74970   0.28740   1.000
    H75     H    0.85480   0.69700   0.61900   1.000
    H76     H    0.14720   0.99120   0.19920   1.000
    H77     H    0.74970   0.69550   0.28740   1.000
    H78     H    0.76120   0.39540   0.15660   1.000
    H79     H    0.60460   0.23880   0.84340   1.000
    H80     H    0.05200   0.20800   0.19920   1.000
    H81     H    0.29870   0.92610   0.00000   1.000
    H82     H    0.94800   0.00880   0.80080   1.000
    H83     H    0.29870   0.07390   0.00000   1.000
    H84     H    0.85850   0.29590   0.15440   1.000
    H85     H    0.14720   0.20800   0.19920   1.000
    H86     H    0.30300   0.23580   0.38100   1.000
    H87     H    0.46230   0.30450   0.71260   1.000
    H88     H    0.20800   0.14720   0.19920   1.000
    C1      C    0.85500   0.76150   0.65560   1.000
    C2      C    0.31580   0.34870   0.57020   1.000
    C3      C    0.34870   0.25440   0.57020   1.000
    C4      C    0.63220   0.60050   0.32440   1.000
    C5      C    0.89410   0.85500   0.65560   1.000
    C6      C    0.10590   0.19940   0.34440   1.000
    C7      C    0.76150   0.80060   0.65560   1.000
    C8      C    0.90900   0.94520   0.76340   1.000
    C9      C    0.14650   0.85350   0.00000   1.000
    C10     C    0.74560   0.65130   0.42980   1.000
    C11     C    0.93410   0.17080   0.00000   1.000
    C12     C    0.06590   0.82920   0.00000   1.000
    C13     C    0.65130   0.74560   0.42980   1.000
    C14     C    0.18180   0.14560   0.23660   1.000
    C15     C    0.71610   0.19370   0.90980   1.000
    C16     C    0.32780   0.67220   0.00000   1.000
    C17     C    0.22150   0.31580   0.57020   1.000
    C18     C    0.23850   0.14500   0.34440   1.000
    C19     C    0.19800   0.19800   0.39600   1.000
    C20     C    0.81820   0.90900   0.76340   1.000
    C21     C    0.79080   0.79080   0.00000   1.000
    C22     C    0.30780   0.39950   0.67560   1.000
    C23     C    0.22150   0.25440   0.57020   1.000
    C24     C    0.10590   0.14500   0.34440   1.000
    C25     C    0.80200   0.80200   0.60400   1.000
    C26     C    0.85350   0.85350   0.00000   1.000
    C27     C    0.79080   0.20920   0.00000   1.000
    C28     C    0.39950   0.36780   0.67560   1.000
    C29     C    0.25680   0.25680   0.51360   1.000
    C30     C    0.28390   0.28390   0.09020   1.000
    C31     C    0.69220   0.72390   0.32440   1.000
    C32     C    0.74730   0.95980   0.00000   1.000
    C33     C    0.80060   0.76150   0.65560   1.000
    C34     C    0.85440   0.81820   0.76340   1.000
    C35     C    0.76150   0.85500   0.65560   1.000
    C36     C    0.31580   0.22150   0.57020   1.000
    C37     C    0.17080   0.06590   0.00000   1.000
    C38     C    0.74840   0.34340   0.09180   1.000
    C39     C    0.05480   0.09100   0.23660   1.000
    C40     C    0.20920   0.79080   0.00000   1.000
    C41     C    0.80630   0.28390   0.09020   1.000
    C42     C    0.19940   0.10590   0.34440   1.000
    C43     C    0.94520   0.85440   0.76340   1.000
    C44     C    0.94520   0.90900   0.76340   1.000
    C45     C    0.39950   0.30780   0.67560   1.000
    C46     C    0.72390   0.63220   0.32440   1.000
    C47     C    0.19370   0.71610   0.90980   1.000
    C48     C    0.60870   0.39130   0.00000   1.000
    C49     C    0.19370   0.19370   0.90980   1.000
    C50     C    0.34340   0.34340   0.09180   1.000
    C51     C    0.14500   0.23850   0.34440   1.000
    C52     C    0.67220   0.32780   0.00000   1.000
    C53     C    0.25440   0.34870   0.57020   1.000
    C54     C    0.74560   0.77850   0.42980   1.000
    C55     C    0.69220   0.60050   0.32440   1.000
    C56     C    0.39130   0.60870   0.00000   1.000
    C57     C    0.95980   0.25270   0.00000   1.000
    C58     C    0.95980   0.74730   0.00000   1.000
    C59     C    0.09100   0.05480   0.23660   1.000
    C60     C    0.67220   0.67220   0.00000   1.000
    C61     C    0.14560   0.18180   0.23660   1.000
    C62     C    0.36780   0.27610   0.67560   1.000
    C63     C    0.93410   0.82920   0.00000   1.000
    C64     C    0.81820   0.85440   0.76340   1.000
    C65     C    0.19940   0.23850   0.34440   1.000
    C66     C    0.18180   0.09100   0.23660   1.000
    C67     C    0.80630   0.80630   0.09020   1.000
    C68     C    0.77850   0.68420   0.42980   1.000
    C69     C    0.82920   0.06590   0.00000   1.000
    C70     C    0.80060   0.89410   0.65560   1.000
    C71     C    0.74320   0.74320   0.48640   1.000
    C72     C    0.25440   0.22150   0.57020   1.000
    C73     C    0.14560   0.05480   0.23660   1.000
    C74     C    0.34870   0.31580   0.57020   1.000
    C75     C    0.25270   0.95980   0.00000   1.000
    C76     C    0.89410   0.80060   0.65560   1.000
    C77     C    0.20920   0.20920   0.00000   1.000
    C78     C    0.17080   0.93410   0.00000   1.000
    C79     C    0.85440   0.94520   0.76340   1.000
    C80     C    0.04020   0.74730   0.00000   1.000
    C81     C    0.90900   0.81820   0.76340   1.000
    C82     C    0.05480   0.14560   0.23660   1.000
    C83     C    0.60050   0.69220   0.32440   1.000
    C84     C    0.04020   0.25270   0.00000   1.000
    C85     C    0.85350   0.14650   0.00000   1.000
    C86     C    0.14500   0.10590   0.34440   1.000
    C87     C    0.71610   0.71610   0.90980   1.000
    C88     C    0.74840   0.74840   0.09180   1.000
    C89     C    0.25160   0.25160   0.90820   1.000
    C90     C    0.65130   0.68420   0.42980   1.000
    C91     C    0.74730   0.04020   0.00000   1.000
    C92     C    0.25160   0.65660   0.90820   1.000
    C93     C    0.60050   0.63220   0.32440   1.000
    C94     C    0.27610   0.30780   0.67560   1.000
    C95     C    0.65660   0.65660   0.90820   1.000
    C96     C    0.68420   0.65130   0.42980   1.000
    C97     C    0.63220   0.72390   0.32440   1.000
    C98     C    0.28390   0.80630   0.09020   1.000
    C99     C    0.30780   0.27610   0.67560   1.000
    C100    C    0.60870   0.60870   0.00000   1.000
    C101    C    0.14650   0.14650   0.00000   1.000
    C102    C    0.36780   0.39950   0.67560   1.000
    C103    C    0.39130   0.39130   0.00000   1.000
    C104    C    0.09100   0.18180   0.23660   1.000
    C105    C    0.72390   0.69220   0.32440   1.000
    C106    C    0.77850   0.74560   0.42980   1.000
    C107    C    0.06590   0.17080   0.00000   1.000
    C108    C    0.68420   0.77850   0.42980   1.000
    C109    C    0.82920   0.93410   0.00000   1.000
    C110    C    0.32780   0.32780   0.00000   1.000
    C111    C    0.34340   0.74840   0.09180   1.000
    C112    C    0.23850   0.19940   0.34440   1.000
    C113    C    0.25270   0.04020   0.00000   1.000
    C114    C    0.27610   0.36780   0.67560   1.000
    C115    C    0.65660   0.25160   0.90820   1.000
    C116    C    0.85500   0.89410   0.65560   1.000
    N1      N    0.90870   0.90870   0.81740   1.000
    N2      N    0.36500   0.36500   0.73000   1.000
    N3      N    0.00000   0.87920   0.00000   1.000
    N4      N    0.63500   0.63500   0.27000   1.000
    N5      N    0.09130   0.09130   0.18260   1.000
    N6      N    0.12080   0.00000   0.00000   1.000
    N7      N    0.00000   0.12080   0.00000   1.000
    N8      N    0.87920   0.00000   0.00000   1.000
    O1      O    0.62676   0.62676   0.08466   1.000
    O2      O    0.37324   0.54210   0.91534   1.000
    O3      O    0.45790   0.45790   0.08466   1.000
    O4      O    0.45790   0.62676   0.08466   1.000
    O5      O    0.54210   0.54210   0.91534   1.000
    O6      O    0.54210   0.37324   0.91534   1.000
    O7      O    0.37324   0.37324   0.91534   1.000
    O8      O    0.62676   0.45790   0.08466   1.000
