data_functionalizedCrystal
_audit_creation_method	'EQeq! by Chris Wilmer'
_symmetry_space_group_name_H-M	'P1'
_symmetry_Int_Tables_number	1
_symmetry_cell_setting	triclinic
loop_
_symmetry_equiv_pos_as_xyz
  x,y,z
_cell_length_a	21.179
_cell_length_b	22.56
_cell_length_c	23.138
_cell_angle_alpha	105.3
_cell_angle_beta	114.19
_cell_angle_gamma	102.88
loop_
_atom_site_label
_atom_site_type_symbol
_atom_site_fract_x
_atom_site_fract_y
_atom_site_fract_z
_atom_site_charge
Mof_Zn	Zn	0.61874	0.53357	0.90577	1.218
Mof_Zn	Zn	0.61114	0.41066	0.81483	1.219
Mof_Zn	Zn	0.64148	0.94091	0.31592	1.219
Mof_Zn	Zn	0.59214	0.00521	0.40618	1.216
Mof_O 	O 	0.72481	0.45167	0.87306	-0.472
Mof_O 	O 	0.50199	0.39463	0.77639	-0.474
Mof_O 	O 	0.66539	0.8972	0.38486	-0.472
Mof_O 	O 	0.48477	0.93977	0.34166	-0.456
Mof_O 	O 	0.50669	0.49236	0.83646	-0.457
Mof_O 	O 	0.6348	0.57794	0.84487	-0.464
Mof_O 	O 	0.60411	0.37666	0.88584	-0.468
Mof_O 	O 	0.53077	0.88978	0.28121	-0.486
Mof_O 	O 	0.70559	0.05491	0.44731	-0.48
Mof_O 	O 	0.61882	0.94018	0.44878	-0.475
Mof_O 	O 	0.74559	0.01184	0.37718	-0.445
Mof_O 	O 	0.72577	0.53871	0.94542	-0.486
Mof_O 	O 	0.5972	0.46738	0.94693	-0.473
Mof_O 	O 	0.6112	0.00111	0.26841	-0.472
Mof_O 	O 	0.5764	0.05121	0.33922	-0.483
Mof_O 	O 	0.6207	0.48069	0.77421	-0.473
Mof_N 	N 	0.6029	0.33381	0.7393	-0.249
Mof_N 	N 	0.6294	0.61227	0.98188	-0.242
Mof_N 	N 	0.5873	0.0738	0.48	-0.263
Mof_O 	O 	0.1095	0.7214	0.1255	-0.256
Mof_N 	N 	0.6462	0.87228	0.243	-0.256
Mof_C 	C 	0.6403	0.7169	0.0856	0.044
Mof_N 	N 	0.0695	0.6264	0.0299	-0.269
Mof_H 	H 	0.0854	0.6045	0.005	0.13
Mof_C 	C 	0.594	0.2305	0.6356	0.044
Mof_C 	C 	0.3932	0.7868	0.1892	0.133
Mof_H 	H 	0.4353	0.7817	0.1862	0.003
Mof_O 	O 	0.1173	0.2311	0.5924	-0.274
Mof_C 	C 	0.5939	0.4083	0.933	0.425
Mof_C 	C 	0.531	0.2309	0.6393	-0.117
Mof_H 	H 	0.484	0.1959	0.6069	0.077
Mof_N 	N 	0.1918	0.6931	0.0944	-0.266
Mof_H 	H 	0.1941	0.6626	0.0634	0.131
Mof_C 	C 	0.5779	0.3754	0.975	-0.214
Mof_C 	C 	0.5377	0.2839	0.6917	0.072
Mof_H 	H 	0.494	0.2847	0.6938	0.007
Mof_O 	O 	0.6641	0.7508	0.6437	-0.265
Mof_N 	N 	0.5338	0.2863	0.0985	-0.266
Mof_H 	H 	0.514	0.3058	0.1208	0.128
Mof_C 	C 	0.4702	0.4319	0.7918	0.42
Mof_C 	C 	0.261	0.7454	0.1453	0.221
Mof_C 	C 	0.6367	0.6563	0.092	-0.106
Mof_H 	H 	0.638	0.6504	0.1316	0.071
Mof_C 	C 	0.3237	0.7384	0.1444	-0.234
Mof_H 	H 	0.3184	0.6991	0.1118	0.117
Mof_C 	C 	0.6433	0.7707	0.1403	0.07
Mof_C 	C 	0.563	0.4061	0.0256	0.16
Mof_H 	H 	0.5614	0.449	0.032	-0.008
Mof_C 	C 	0.8788	0.5072	0.9264	0.146
Mof_H 	H 	0.8526	0.4647	0.8893	-0.005
Mof_O 	O 	0.5755	0.1994	0.0837	-0.26
Mof_C 	C 	0.389	0.4071	0.7588	-0.214
Mof_C 	C 	0.6357	0.6713	0.9782	0.066
Mof_H 	H 	0.6357	0.6766	0.9389	0.004
Mof_C 	C 	0.6907	0.8098	0.4482	0.149
Mof_H 	H 	0.6989	0.8048	0.4101	-0.002
Mof_C 	C 	0.6665	0.8591	0.4691	-0.208
Mof_N 	N 	0.156	0.3373	0.6663	-0.273
Mof_H 	H 	0.1391	0.3674	0.6798	0.127
Mof_C 	C 	0.7571	0.5074	0.9215	0.44
Mof_C 	C 	0.5505	0.377	0.0663	-0.253
Mof_H 	H 	0.5419	0.4003	0.1012	0.119
Mof_C 	C 	0.8389	0.5376	0.9512	-0.201
Mof_C 	C 	0.4024	0.8442	0.2397	-0.183
Mof_N 	N 	0.7047	0.7269	0.5654	-0.269
Mof_H 	H 	0.726	0.7017	0.551	0.128
Mof_C 	C 	0.755	0.056	0.4309	0.422
Mof_C 	C 	0.344	0.3442	0.7058	0.152
Mof_H 	H 	0.3676	0.3173	0.691	-0.007
Mof_C 	C 	0.5902	0.1755	0.5801	0.086
Mof_C 	C 	0.6423	0.7255	0.0298	-0.114
Mof_H 	H 	0.6481	0.7671	0.0263	0.069
Mof_C 	C 	0.2682	0.3193	0.6743	-0.251
Mof_H 	H 	0.2401	0.2762	0.6382	0.139
Mof_C 	C 	0.2675	0.8021	0.1938	-0.228
Mof_H 	H 	0.2247	0.8079	0.1945	0.13
Mof_C 	C 	0.658	0.8646	0.5271	0.151
Mof_H 	H 	0.6433	0.8991	0.544	-0.008
Mof_C 	C 	0.4783	0.8947	0.2916	0.417
Mof_C 	C 	0.8271	0.11	0.474	-0.197
Mof_C 	C 	0.6499	0.9026	0.4318	0.434
Mof_C 	C 	0.5502	0.3138	0.0579	0.238
Mof_C 	C 	0.3373	0.8489	0.24	0.13
Mof_H 	H 	0.3424	0.8868	0.2743	0.002
Mof_C 	C 	0.6312	0.6051	0.039	0.056
Mof_H 	H 	0.6286	0.5638	0.0428	0.016
Mof_C 	C 	0.5727	0.0875	0.2546	-0.231
Mof_C 	C 	0.9522	0.536	0.953	-0.238
Mof_H 	H 	0.9767	0.513	0.9346	0.111
Mof_C 	C 	0.7031	0.7675	0.4816	-0.244
Mof_H 	H 	0.7189	0.7336	0.4655	0.113
Mof_N 	N 	0.5309	0.2205	0.1586	-0.267
Mof_H 	H 	0.5106	0.2462	0.1739	0.129
Mof_C 	C 	0.6697	0.8238	0.5602	-0.249
Mof_H 	H 	0.6622	0.8291	0.5987	0.138
Mof_C 	C 	0.586	0.0431	0.2883	0.454
Mof_N 	N 	0.6977	0.6618	0.6257	-0.271
Mof_H 	H 	0.7169	0.6414	0.6033	0.128
Mof_C 	C 	0.2322	0.3575	0.6951	0.234
Mof_C 	C 	0.9951	0.5997	0.0077	0.218
Mof_C 	C 	0.3509	0.4448	0.7787	0.157
Mof_H 	H 	0.379	0.4878	0.815	-0.012
Mof_C 	C 	0.576	0.3113	0.9659	0.155
Mof_H 	H 	0.5835	0.2878	0.9302	-0.007
Mof_C 	C 	0.5638	0.2811	0.0061	-0.244
Mof_H 	H 	0.5644	0.2379	0.9991	0.137
Mof_C 	C 	0.8896	0.1116	0.4664	0.142
Mof_H 	H 	0.8849	0.0752	0.4307	0.005
Mof_N 	N 	0.0346	0.2712	0.6083	-0.272
Mof_H 	H 	0.032	0.3066	0.6332	0.128
Mof_C 	C 	0.6348	0.5427	0.7935	0.42
Mof_C 	C 	0.6168	0.7572	0.1834	-0.129
Mof_H 	H 	0.5982	0.713	0.1793	0.081
Mof_C 	C 	0.5455	0.2293	0.1085	0.296
Mof_C 	C 	0.2765	0.4217	0.7479	-0.251
Mof_H 	H 	0.2529	0.4491	0.7619	0.113
Mof_C 	C 	0.1228	0.6831	0.0864	0.299
Mof_C 	C 	0.8821	0.6013	0.0063	0.137
Mof_H 	H 	0.8571	0.624	0.0242	0.001
Mof_C 	C 	0.693	0.7734	0.5374	0.236
Mof_C 	C 	0.9565	0.6314	0.0346	-0.231
Mof_H 	H 	0.9829	0.6735	0.0723	0.132
Mof_C 	C 	0.6666	0.8842	0.2001	0.099
Mof_H 	H 	0.6806	0.9282	0.2025	-0.005
Mof_C 	C 	0.6831	0.6357	0.6677	0.224
Mof_C 	C 	0.6519	0.5747	0.7507	-0.195
Mof_C 	C 	0.5824	0.0837	0.1982	0.166
Mof_H 	H 	0.5978	0.0499	0.1812	-0.005
Mof_C 	C 	0.6763	0.6711	0.7231	-0.237
Mof_H 	H 	0.6827	0.7165	0.7339	0.133
Mof_C 	C 	0.6578	0.5386	0.6938	0.145
Mof_H 	H 	0.6512	0.4932	0.6832	-0.004
Mof_C 	C 	0.6688	0.835	0.1509	-0.139
Mof_H 	H 	0.689	0.8471	0.1239	0.079
Mof_C 	C 	0.6587	0.2821	0.6822	-0.12
Mof_H 	H 	0.7027	0.2835	0.6797	0.072
Mof_C 	C 	0.965	0.2151	0.5606	0.226
Mof_C 	C 	0.6863	0.7159	0.6138	0.306
Mof_C 	C 	0.8387	0.1644	0.5308	0.144
Mof_H 	H 	0.7989	0.1651	0.5397	-0.005
Mof_C 	C 	0.6606	0.6403	0.7608	0.147
Mof_H 	H 	0.6549	0.6653	0.7971	-0.003
Mof_C 	C 	0.958	0.1638	0.5084	-0.236
Mof_H 	H 	0.999	0.1638	0.5012	0.136
Mof_C 	C 	0.1024	0.2749	0.6183	0.324
Mof_C 	C 	0.5451	0.1749	0.1879	0.226
Mof_C 	C 	0.5466	0.1366	0.2755	0.171
Mof_H 	H 	0.5359	0.1391	0.3119	-0.01
Mof_C 	C 	0.6724	0.5677	0.6558	-0.235
Mof_H 	H 	0.676	0.5421	0.6183	0.108
Mof_C 	C 	0.6622	0.3331	0.7335	0.076
Mof_H 	H 	0.7087	0.3687	0.7657	0.005
Mof_C 	C 	0.6182	0.8098	0.2326	0.086
Mof_H 	H 	0.5978	0.7998	0.2602	0.003
Mof_C 	C 	0.5711	0.1259	0.1659	-0.243
Mof_H 	H 	0.5805	0.1223	0.1287	0.14
Mof_C 	C 	0.9054	0.2145	0.5715	-0.239
Mof_H 	H 	0.9119	0.2504	0.6088	0.11
Mof_C 	C 	0.5365	0.1795	0.2464	-0.249
Mof_H 	H 	0.523	0.2142	0.2651	0.115
Mof_C 	C 	0.6417	0.0947	0.5461	0.155
Mof_H 	H 	0.6784	0.0755	0.5566	-0.025
Mof_C 	C 	0.6446	0.1439	0.5989	-0.179
Mof_H 	H 	0.6807	0.1567	0.6458	0.095
Mof_C 	C 	0.5326	0.0905	0.4705	0.294
Mof_H 	H 	0.4876	0.0641	0.4279	-0.074
Mof_C 	C 	0.531	0.1437	0.5159	-0.303
Mof_H 	H 	0.4896	0.157	0.5021	0.137
Mof_C 	C 	0.6281	0.1919	0.5413	-0.015
Mof_H 	H 	0.6535	0.2364	0.5499	0.036
Mof_C 	C 	0.6242	0.1396	0.493	-0.058
Mof_H 	H 	0.6474	0.1478	0.4669	0.049
Mof_C 	C 	0.5457	0.1127	0.5547	0.128
Mof_H 	H 	0.5083	0.1005	0.5666	-0.004
Mof_C 	C 	0.5545	0.0661	0.5112	-0.193
Mof_H 	H 	0.5319	0.0216	0.5044	0.074
Mof_Zn	Zn	0.38126	0.46643	0.09423	1.217
Mof_Zn	Zn	0.38886	0.58934	0.18517	1.218
Mof_Zn	Zn	0.35852	0.05909	0.68408	1.218
Mof_Zn	Zn	0.40786	0.99479	0.59382	1.215
Mof_O 	O 	0.27519	0.54833	0.12694	-0.473
Mof_O 	O 	0.49801	0.60537	0.22361	-0.475
Mof_O 	O 	0.33461	0.1028	0.61514	-0.472
Mof_O 	O 	0.51523	0.06023	0.65834	-0.456
Mof_O 	O 	0.49331	0.50764	0.16354	-0.457
Mof_O 	O 	0.3652	0.42206	0.15513	-0.464
Mof_O 	O 	0.39589	0.62334	0.11416	-0.468
Mof_O 	O 	0.46923	0.11022	0.71879	-0.486
Mof_O 	O 	0.29441	0.94509	0.55269	-0.48
Mof_O 	O 	0.38118	0.05982	0.55122	-0.475
Mof_O 	O 	0.25441	0.98816	0.62282	-0.445
Mof_O 	O 	0.27423	0.46129	0.05458	-0.486
Mof_O 	O 	0.4028	0.53262	0.05307	-0.473
Mof_O 	O 	0.3888	0.99889	0.73159	-0.472
Mof_O 	O 	0.4236	0.94879	0.66078	-0.483
Mof_O 	O 	0.3793	0.51931	0.22579	-0.473
Mof_N 	N 	0.3971	0.66619	0.2607	-0.249
Mof_N 	N 	0.3706	0.38773	0.01812	-0.242
Mof_N 	N 	0.4127	0.9262	0.52	-0.263
Mof_O 	O 	0.8905	0.2786	0.8745	-0.256
Mof_N 	N 	0.3538	0.12772	0.757	-0.256
Mof_C 	C 	0.3597	0.2831	0.9144	0.044
Mof_N 	N 	0.9305	0.3736	0.9701	-0.269
Mof_H 	H 	0.9146	0.3955	0.995	0.13
Mof_C 	C 	0.406	0.7695	0.3644	0.044
Mof_C 	C 	0.6068	0.2132	0.8108	0.133
Mof_H 	H 	0.5647	0.2183	0.8138	0.003
Mof_O 	O 	0.8827	0.7689	0.4076	-0.274
Mof_C 	C 	0.4061	0.5917	0.067	0.425
Mof_C 	C 	0.469	0.7691	0.3607	-0.117
Mof_H 	H 	0.516	0.8041	0.3931	0.077
Mof_N 	N 	0.8082	0.3069	0.9056	-0.266
Mof_H 	H 	0.8059	0.3374	0.9366	0.131
Mof_C 	C 	0.4221	0.6246	0.025	-0.214
Mof_C 	C 	0.4623	0.7161	0.3083	0.072
Mof_H 	H 	0.506	0.7153	0.3062	0.007
Mof_O 	O 	0.3359	0.2492	0.3563	-0.265
Mof_N 	N 	0.4662	0.7137	0.9015	-0.266
Mof_H 	H 	0.486	0.6942	0.8792	0.128
Mof_C 	C 	0.5298	0.5681	0.2082	0.42
Mof_C 	C 	0.739	0.2546	0.8547	0.221
Mof_C 	C 	0.3633	0.3437	0.908	-0.106
Mof_H 	H 	0.362	0.3496	0.8684	0.071
Mof_C 	C 	0.6763	0.2616	0.8556	-0.234
Mof_H 	H 	0.6816	0.3009	0.8882	0.117
Mof_C 	C 	0.3567	0.2293	0.8597	0.07
Mof_C 	C 	0.437	0.5939	0.9744	0.16
Mof_H 	H 	0.4386	0.551	0.968	-0.008
Mof_C 	C 	0.1212	0.4928	0.0736	0.146
Mof_H 	H 	0.1474	0.5353	0.1107	-0.005
Mof_O 	O 	0.4245	0.8006	0.9163	-0.26
Mof_C 	C 	0.611	0.5929	0.2412	-0.214
Mof_C 	C 	0.3643	0.3287	0.0218	0.066
Mof_H 	H 	0.3643	0.3234	0.0611	0.004
Mof_C 	C 	0.3093	0.1902	0.5518	0.149
Mof_H 	H 	0.3011	0.1952	0.5899	-0.002
Mof_C 	C 	0.3335	0.1409	0.5309	-0.208
Mof_N 	N 	0.844	0.6627	0.3337	-0.273
Mof_H 	H 	0.8609	0.6326	0.3202	0.127
Mof_C 	C 	0.2429	0.4926	0.0785	0.44
Mof_C 	C 	0.4495	0.623	0.9337	-0.253
Mof_H 	H 	0.4581	0.5997	0.8988	0.119
Mof_C 	C 	0.1611	0.4624	0.0488	-0.201
Mof_C 	C 	0.5976	0.1558	0.7603	-0.183
Mof_N 	N 	0.2953	0.2731	0.4346	-0.269
Mof_H 	H 	0.274	0.2983	0.449	0.128
Mof_C 	C 	0.245	0.944	0.5691	0.422
Mof_C 	C 	0.656	0.6558	0.2942	0.152
Mof_H 	H 	0.6324	0.6827	0.309	-0.007
Mof_C 	C 	0.4098	0.8245	0.4199	0.086
Mof_C 	C 	0.3577	0.2745	0.9702	-0.114
Mof_H 	H 	0.3519	0.2329	0.9737	0.069
Mof_C 	C 	0.7318	0.6807	0.3257	-0.251
Mof_H 	H 	0.7599	0.7238	0.3618	0.139
Mof_C 	C 	0.7325	0.1979	0.8062	-0.228
Mof_H 	H 	0.7753	0.1921	0.8055	0.13
Mof_C 	C 	0.342	0.1354	0.4729	0.151
Mof_H 	H 	0.3567	0.1009	0.456	-0.008
Mof_C 	C 	0.5217	0.1053	0.7084	0.417
Mof_C 	C 	0.1729	0.89	0.526	-0.197
Mof_C 	C 	0.3501	0.0974	0.5682	0.434
Mof_C 	C 	0.4498	0.6862	0.9421	0.238
Mof_C 	C 	0.6627	0.1511	0.76	0.13
Mof_H 	H 	0.6576	0.1132	0.7257	0.002
Mof_C 	C 	0.3688	0.3949	0.961	0.056
Mof_H 	H 	0.3714	0.4362	0.9572	0.016
Mof_C 	C 	0.4273	0.9125	0.7454	-0.231
Mof_C 	C 	0.0478	0.464	0.047	-0.238
Mof_H 	H 	0.0233	0.487	0.0654	0.111
Mof_C 	C 	0.2969	0.2325	0.5184	-0.244
Mof_H 	H 	0.2811	0.2664	0.5345	0.113
Mof_N 	N 	0.4691	0.7795	0.8414	-0.267
Mof_H 	H 	0.4894	0.7538	0.8261	0.129
Mof_C 	C 	0.3303	0.1762	0.4398	-0.249
Mof_H 	H 	0.3378	0.1709	0.4013	0.138
Mof_C 	C 	0.414	0.9569	0.7117	0.454
Mof_N 	N 	0.3023	0.3382	0.3743	-0.271
Mof_H 	H 	0.2831	0.3586	0.3967	0.128
Mof_C 	C 	0.7678	0.6425	0.3049	0.234
Mof_C 	C 	0.0049	0.4003	0.9923	0.218
Mof_C 	C 	0.6491	0.5552	0.2213	0.157
Mof_H 	H 	0.621	0.5122	0.185	-0.012
Mof_C 	C 	0.424	0.6887	0.0341	0.155
Mof_H 	H 	0.4165	0.7122	0.0698	-0.007
Mof_C 	C 	0.4362	0.7189	0.9939	-0.244
Mof_H 	H 	0.4356	0.7621	0.0009	0.137
Mof_C 	C 	0.1104	0.8884	0.5336	0.142
Mof_H 	H 	0.1151	0.9248	0.5693	0.005
Mof_N 	N 	0.9654	0.7288	0.3917	-0.272
Mof_H 	H 	0.968	0.6934	0.3668	0.128
Mof_C 	C 	0.3652	0.4573	0.2065	0.42
Mof_C 	C 	0.3832	0.2428	0.8166	-0.129
Mof_H 	H 	0.4018	0.287	0.8207	0.081
Mof_C 	C 	0.4545	0.7707	0.8915	0.296
Mof_C 	C 	0.7235	0.5783	0.2521	-0.251
Mof_H 	H 	0.7471	0.5509	0.2381	0.113
Mof_C 	C 	0.8772	0.3169	0.9136	0.299
Mof_C 	C 	0.1179	0.3987	0.9937	0.137
Mof_H 	H 	0.1429	0.376	0.9758	0.001
Mof_C 	C 	0.307	0.2266	0.4626	0.236
Mof_C 	C 	0.0435	0.3686	0.9654	-0.231
Mof_H 	H 	0.0171	0.3265	0.9277	0.132
Mof_C 	C 	0.3334	0.1158	0.7999	0.099
Mof_H 	H 	0.3194	0.0718	0.7975	-0.005
Mof_C 	C 	0.3169	0.3643	0.3323	0.224
Mof_C 	C 	0.3481	0.4253	0.2493	-0.195
Mof_C 	C 	0.4176	0.9163	0.8018	0.166
Mof_H 	H 	0.4022	0.9501	0.8188	-0.005
Mof_C 	C 	0.3237	0.3289	0.2769	-0.237
Mof_H 	H 	0.3173	0.2835	0.2661	0.133
Mof_C 	C 	0.3422	0.4614	0.3062	0.145
Mof_H 	H 	0.3488	0.5068	0.3168	-0.004
Mof_C 	C 	0.3312	0.165	0.8491	-0.139
Mof_H 	H 	0.311	0.1529	0.8761	0.079
Mof_C 	C 	0.3413	0.7179	0.3178	-0.12
Mof_H 	H 	0.2973	0.7165	0.3203	0.072
Mof_C 	C 	0.035	0.7849	0.4394	0.226
Mof_C 	C 	0.3137	0.2841	0.3862	0.306
Mof_C 	C 	0.1613	0.8356	0.4692	0.144
Mof_H 	H 	0.2011	0.8349	0.4603	-0.005
Mof_C 	C 	0.3394	0.3597	0.2392	0.147
Mof_H 	H 	0.3451	0.3347	0.2029	-0.003
Mof_C 	C 	0.042	0.8362	0.4916	-0.236
Mof_H 	H 	0.001	0.8362	0.4988	0.136
Mof_C 	C 	0.8976	0.7251	0.3817	0.324
Mof_C 	C 	0.4549	0.8251	0.8121	0.226
Mof_C 	C 	0.4534	0.8634	0.7245	0.171
Mof_H 	H 	0.4641	0.8609	0.6881	-0.01
Mof_C 	C 	0.3276	0.4323	0.3442	-0.235
Mof_H 	H 	0.324	0.4579	0.3817	0.108
Mof_C 	C 	0.3378	0.6669	0.2665	0.076
Mof_H 	H 	0.2913	0.6313	0.2343	0.005
Mof_C 	C 	0.3818	0.1902	0.7674	0.086
Mof_H 	H 	0.4022	0.2002	0.7398	0.003
Mof_C 	C 	0.4289	0.8741	0.8341	-0.243
Mof_H 	H 	0.4195	0.8777	0.8713	0.14
Mof_C 	C 	0.0946	0.7855	0.4285	-0.239
Mof_H 	H 	0.0881	0.7496	0.3912	0.11
Mof_C 	C 	0.4635	0.8205	0.7536	-0.249
Mof_H 	H 	0.477	0.7858	0.7349	0.115
Mof_C 	C 	0.3583	0.9053	0.4539	0.155
Mof_H 	H 	0.3216	0.9245	0.4434	-0.025
Mof_C 	C 	0.3554	0.8561	0.4011	-0.179
Mof_H 	H 	0.3193	0.8433	0.3542	0.095
Mof_C 	C 	0.4674	0.9095	0.5295	0.294
Mof_H 	H 	0.5124	0.9359	0.5721	-0.074
Mof_C 	C 	0.469	0.8563	0.4841	-0.303
Mof_H 	H 	0.5104	0.843	0.4979	0.137
Mof_C 	C 	0.3719	0.8081	0.4587	-0.015
Mof_H 	H 	0.3465	0.7636	0.4501	0.036
Mof_C 	C 	0.3758	0.8604	0.507	-0.058
Mof_H 	H 	0.3526	0.8522	0.5331	0.049
Mof_C 	C 	0.4543	0.8873	0.4453	0.128
Mof_H 	H 	0.4917	0.8995	0.4334	-0.004
Mof_C 	C 	0.4455	0.9339	0.4888	-0.193
Mof_H 	H 	0.4681	0.9784	0.4956	0.074
_end
