data_functionalizedCrystal
_audit_creation_method	'EQeq! by Chris Wilmer'
_symmetry_space_group_name_H-M	'P1'
_symmetry_Int_Tables_number	1
_symmetry_cell_setting	triclinic
loop_
_symmetry_equiv_pos_as_xyz
  x,y,z
_cell_length_a	18.421
_cell_length_b	18.421
_cell_length_c	8.537
_cell_angle_alpha	90
_cell_angle_beta	90
_cell_angle_gamma	120
loop_
_atom_site_label
_atom_site_type_symbol
_atom_site_fract_x
_atom_site_fract_y
_atom_site_fract_z
_atom_site_charge
Mof_C 	C 	0.3546	0.0399	0.29	0.218
Mof_C 	C 	0.257	0.994	0.339	0.558
Mof_C 	C 	0.322	0.039	0.333	0.912
Mof_C 	C 	0.9601	0.3147	0.29	0.216
Mof_C 	C 	0.006	0.263	0.339	0.561
Mof_C 	C 	0.961	0.283	0.333	0.918
Mof_C 	C 	0.6853	0.6454	0.29	0.211
Mof_C 	C 	0.737	0.743	0.339	0.567
Mof_C 	C 	0.717	0.678	0.333	0.93
Mof_C 	C 	0.6454	0.9601	0.79	0.215
Mof_C 	C 	0.743	0.006	0.839	0.563
Mof_C 	C 	0.678	0.961	0.833	0.911
Mof_C 	C 	0.0399	0.6853	0.79	0.214
Mof_C 	C 	0.994	0.737	0.839	0.564
Mof_C 	C 	0.039	0.717	0.833	0.917
Mof_C 	C 	0.3147	0.3546	0.79	0.212
Mof_C 	C 	0.263	0.257	0.839	0.568
Mof_C 	C 	0.283	0.322	0.833	0.931
Mof_C 	C 	0.0399	0.3546	0.71	0.219
Mof_C 	C 	0.994	0.257	0.661	0.559
Mof_C 	C 	0.039	0.322	0.667	0.913
Mof_C 	C 	0.3147	0.9601	0.71	0.217
Mof_C 	C 	0.263	0.006	0.661	0.562
Mof_C 	C 	0.283	0.961	0.667	0.919
Mof_C 	C 	0.6454	0.6853	0.71	0.212
Mof_C 	C 	0.743	0.737	0.661	0.568
Mof_C 	C 	0.678	0.717	0.667	0.931
Mof_C 	C 	0.9601	0.6454	0.21	0.216
Mof_C 	C 	0.006	0.743	0.161	0.563
Mof_C 	C 	0.961	0.678	0.167	0.911
Mof_C 	C 	0.6853	0.0399	0.21	0.214
Mof_C 	C 	0.737	0.994	0.161	0.564
Mof_C 	C 	0.717	0.039	0.167	0.917
Mof_C 	C 	0.3546	0.3147	0.21	0.212
Mof_C 	C 	0.257	0.263	0.161	0.568
Mof_C 	C 	0.322	0.283	0.167	0.931
Mof_C 	C 	0.6454	0.9601	0.71	0.219
Mof_C 	C 	0.743	0.006	0.661	0.559
Mof_C 	C 	0.678	0.961	0.667	0.913
Mof_C 	C 	0.0399	0.6853	0.71	0.217
Mof_C 	C 	0.994	0.737	0.661	0.562
Mof_C 	C 	0.039	0.717	0.667	0.919
Mof_C 	C 	0.3147	0.3546	0.71	0.212
Mof_C 	C 	0.263	0.257	0.661	0.568
Mof_C 	C 	0.283	0.322	0.667	0.931
Mof_C 	C 	0.3546	0.0399	0.21	0.216
Mof_C 	C 	0.257	0.994	0.161	0.563
Mof_C 	C 	0.322	0.039	0.167	0.911
Mof_C 	C 	0.9601	0.3147	0.21	0.214
Mof_C 	C 	0.006	0.263	0.161	0.564
Mof_C 	C 	0.961	0.283	0.167	0.917
Mof_C 	C 	0.6853	0.6454	0.21	0.212
Mof_C 	C 	0.737	0.743	0.161	0.568
Mof_C 	C 	0.717	0.678	0.167	0.931
Mof_C 	C 	0.9601	0.6454	0.29	0.219
Mof_C 	C 	0.006	0.743	0.339	0.559
Mof_C 	C 	0.961	0.678	0.333	0.913
Mof_C 	C 	0.6853	0.0399	0.29	0.217
Mof_C 	C 	0.737	0.994	0.339	0.562
Mof_C 	C 	0.717	0.039	0.333	0.919
Mof_C 	C 	0.3546	0.3147	0.29	0.212
Mof_C 	C 	0.257	0.263	0.339	0.568
Mof_C 	C 	0.322	0.283	0.333	0.931
Mof_C 	C 	0.0399	0.3546	0.79	0.216
Mof_C 	C 	0.994	0.257	0.839	0.563
Mof_C 	C 	0.039	0.322	0.833	0.911
Mof_C 	C 	0.3147	0.9601	0.79	0.214
Mof_C 	C 	0.263	0.006	0.839	0.564
Mof_C 	C 	0.283	0.961	0.833	0.917
Mof_C 	C 	0.6454	0.6853	0.79	0.212
Mof_C 	C 	0.743	0.737	0.839	0.568
Mof_C 	C 	0.678	0.717	0.833	0.931
Mof_Cu	Cu	0.53885	0.07769	0.25	0.82
Mof_Cu	Cu	0.92231	0.46116	0.25	0.82
Mof_Cu	Cu	0.53884	0.46115	0.25	0.82
Mof_Cu	Cu	0.46115	0.92231	0.75	0.82
Mof_Cu	Cu	0.07769	0.53884	0.75	0.82
Mof_Cu	Cu	0.46116	0.53885	0.75	0.82
Mof_C 	C 	0.50975	0.0195	0.0574	-0.286
Mof_C 	C 	0.9805	0.49025	0.0574	-0.286
Mof_C 	C 	0.50975	0.49025	0.0574	-0.286
Mof_C 	C 	0.49025	0.9805	0.5574	-0.286
Mof_C 	C 	0.0195	0.50975	0.5574	-0.286
Mof_C 	C 	0.49025	0.50975	0.5574	-0.286
Mof_C 	C 	0.0195	0.50975	0.9426	-0.286
Mof_C 	C 	0.49025	0.9805	0.9426	-0.286
Mof_C 	C 	0.49025	0.50975	0.9426	-0.286
Mof_C 	C 	0.9805	0.49025	0.4426	-0.286
Mof_C 	C 	0.50975	0.0195	0.4426	-0.286
Mof_C 	C 	0.50975	0.49025	0.4426	-0.286
Mof_C 	C 	0.5894	0.2572	0.25	-0.009
Mof_N 	N 	0.5174	0.182	0.25	-0.235
Mof_O 	O 	0.3683	0.1277	0.25	0.113
Mof_C 	C 	0.4478	0.1855	0.25	0.079
Mof_C 	C 	0.375	0.0951	0.25	-0.831
Mof_N 	N 	0.3214	0.0352	0.25	-1.157
Mof_C 	C 	0.257	0.989	0.25	-1.467
Mof_C 	C 	0.7428	0.3322	0.25	-0.008
Mof_N 	N 	0.818	0.3354	0.25	-0.235
Mof_O 	O 	0.8723	0.2406	0.25	0.113
Mof_C 	C 	0.8145	0.2623	0.25	0.079
Mof_C 	C 	0.9049	0.2799	0.25	-0.831
Mof_N 	N 	0.9648	0.2862	0.25	-1.161
Mof_C 	C 	0.011	0.268	0.25	-1.473
Mof_C 	C 	0.6678	0.4106	0.25	-0.008
Mof_N 	N 	0.6646	0.4826	0.25	-0.235
Mof_O 	O 	0.7594	0.6317	0.25	0.112
Mof_C 	C 	0.7377	0.5522	0.25	0.08
Mof_C 	C 	0.7201	0.625	0.25	-0.834
Mof_N 	N 	0.7138	0.6786	0.25	-1.168
Mof_C 	C 	0.732	0.743	0.25	-1.49
Mof_C 	C 	0.4106	0.7428	0.75	-0.009
Mof_N 	N 	0.4826	0.818	0.75	-0.235
Mof_O 	O 	0.6317	0.8723	0.75	0.113
Mof_C 	C 	0.5522	0.8145	0.75	0.079
Mof_C 	C 	0.625	0.9049	0.75	-0.831
Mof_N 	N 	0.6786	0.9648	0.75	-1.157
Mof_C 	C 	0.743	0.011	0.75	-1.467
Mof_C 	C 	0.2572	0.6678	0.75	-0.008
Mof_N 	N 	0.182	0.6646	0.75	-0.235
Mof_O 	O 	0.1277	0.7594	0.75	0.113
Mof_C 	C 	0.1855	0.7377	0.75	0.079
Mof_C 	C 	0.0951	0.7201	0.75	-0.831
Mof_N 	N 	0.0352	0.7138	0.75	-1.161
Mof_C 	C 	0.989	0.732	0.75	-1.473
Mof_C 	C 	0.3322	0.5894	0.75	-0.008
Mof_N 	N 	0.3354	0.5174	0.75	-0.235
Mof_O 	O 	0.2406	0.3683	0.75	0.112
Mof_C 	C 	0.2623	0.4478	0.75	0.08
Mof_C 	C 	0.2799	0.375	0.75	-0.834
Mof_N 	N 	0.2862	0.3214	0.75	-1.168
Mof_C 	C 	0.268	0.257	0.75	-1.49
Mof_C 	C 	0.2572	0.5894	0.75	-0.008
Mof_N 	N 	0.182	0.5174	0.75	-0.235
Mof_O 	O 	0.1277	0.3683	0.75	0.113
Mof_C 	C 	0.1855	0.4478	0.75	0.079
Mof_C 	C 	0.0951	0.375	0.75	-0.831
Mof_N 	N 	0.0352	0.3214	0.75	-1.157
Mof_C 	C 	0.989	0.257	0.75	-1.467
Mof_C 	C 	0.3322	0.7428	0.75	-0.008
Mof_N 	N 	0.3354	0.818	0.75	-0.235
Mof_O 	O 	0.2406	0.8723	0.75	0.113
Mof_C 	C 	0.2623	0.8145	0.75	0.079
Mof_C 	C 	0.2799	0.9049	0.75	-0.831
Mof_N 	N 	0.2862	0.9648	0.75	-1.161
Mof_C 	C 	0.268	0.011	0.75	-1.473
Mof_C 	C 	0.4106	0.6678	0.75	-0.008
Mof_N 	N 	0.4826	0.6646	0.75	-0.235
Mof_O 	O 	0.6317	0.7594	0.75	0.112
Mof_C 	C 	0.5522	0.7377	0.75	0.08
Mof_C 	C 	0.625	0.7201	0.75	-0.834
Mof_N 	N 	0.6786	0.7138	0.75	-1.168
Mof_C 	C 	0.743	0.732	0.75	-1.49
Mof_C 	C 	0.7428	0.4106	0.25	-0.008
Mof_N 	N 	0.818	0.4826	0.25	-0.235
Mof_O 	O 	0.8723	0.6317	0.25	0.113
Mof_C 	C 	0.8145	0.5522	0.25	0.079
Mof_C 	C 	0.9049	0.625	0.25	-0.831
Mof_N 	N 	0.9648	0.6786	0.25	-1.157
Mof_C 	C 	0.011	0.743	0.25	-1.467
Mof_C 	C 	0.6678	0.2572	0.25	-0.008
Mof_N 	N 	0.6646	0.182	0.25	-0.235
Mof_O 	O 	0.7594	0.1277	0.25	0.113
Mof_C 	C 	0.7377	0.1855	0.25	0.079
Mof_C 	C 	0.7201	0.0951	0.25	-0.831
Mof_N 	N 	0.7138	0.0352	0.25	-1.161
Mof_C 	C 	0.732	0.989	0.25	-1.473
Mof_C 	C 	0.5894	0.3322	0.25	-0.008
Mof_N 	N 	0.5174	0.3354	0.25	-0.235
Mof_O 	O 	0.3683	0.2406	0.25	0.112
Mof_C 	C 	0.4478	0.2623	0.25	0.08
Mof_C 	C 	0.375	0.2799	0.25	-0.834
Mof_N 	N 	0.3214	0.2862	0.25	-1.168
Mof_C 	C 	0.257	0.268	0.25	-1.49
_end
