data_functionalizedCrystal
_audit_creation_method	'EQeq! by Chris Wilmer'
_symmetry_space_group_name_H-M	'P1'
_symmetry_Int_Tables_number	1
_symmetry_cell_setting	triclinic
loop_
_symmetry_equiv_pos_as_xyz
  x,y,z
_cell_length_a	13.812
_cell_length_b	21.618
_cell_length_c	9.061
_cell_angle_alpha	90
_cell_angle_beta	90
_cell_angle_gamma	90
loop_
_atom_site_label
_atom_site_type_symbol
_atom_site_fract_x
_atom_site_fract_y
_atom_site_fract_z
_atom_site_charge
Mof_O 	O 	0.6156	0.1864	0.8313	-0.26
Mof_O 	O 	0.0052	0.297	0.5541	-0.245
Mof_N 	N 	0.6968	0.3263	0.173	-0.27
Mof_N 	N 	0.9141	0.493	0.4087	-0.069
Mof_C 	C 	0.7762	0.3548	0.1259	0.091
Mof_H 	H 	0.8073	0.3394	0.04	0
Mof_C 	C 	0.8168	0.4071	0.1973	-0.182
Mof_H 	H 	0.8742	0.4256	0.16	0.102
Mof_C 	C 	0.7729	0.4307	0.3196	0.154
Mof_C 	C 	0.6896	0.4013	0.3721	-0.187
Mof_H 	H 	0.6577	0.4159	0.4583	0.094
Mof_C 	C 	0.6544	0.3502	0.2957	0.084
Mof_H 	H 	0.5973	0.3308	0.3314	-0.014
Mof_C 	C 	0.8094	0.4867	0.4005	-0.189
Mof_H 	H 	0.7829	0.524	0.3517	0.11
Mof_H 	H 	0.7834	0.4857	0.5023	0.093
Mof_C 	C 	0.9561	0.4424	0.4987	-0.061
Mof_H 	H 	0.9409	0.4022	0.4518	0.064
Mof_H 	H 	0.926	0.4427	0.5978	0.067
Mof_C 	C 	0.9372	0.5515	0.4857	-0.067
Mof_H 	H 	0.9066	0.5517	0.5845	0.062
Mof_H 	H 	0.9114	0.5869	0.4288	0.074
Mof_C 	C 	0.673	0.219	0.775	0.272
Mof_C 	C 	0.704	0.2181	0.638	0.166
Mof_H 	H 	0.6665	0.2387	0.5392	0.117
Mof_C 	C 	0.858	0.2288	0.466	-0.04
Mof_H 	H 	0.8408	0.1927	0.4044	-0.102
Mof_H 	H 	0.8233	0.2649	0.4244	-0.058
Mof_C 	C 	0.959	0.271	0.467	0.105
Mof_C 	C 	0.812	0.216	0.631	-0.033
Mof_H 	H 	0.8339	0.1752	0.6661	-0.089
Mof_H 	H 	0.8378	0.2477	0.7001	0.092
Mof_O 	O 	0.2848	0.377	0.748	-0.596
Mof_H 	H 	0.2359	0.3529	0.7297	0.296
Mof_H 	H 	0.3207	0.3607	0.8166	0.332
Mof_C 	C 	0.691	0.224	0.814	-0.142
Mof_H 	H 	0.6776	0.2543	0.5847	-0.192
Mof_H 	H 	0.7124	0.2956	0.6304	-0.22
Mof_C 	C 	0.805	0.224	0.602	-0.033
Mof_H 	H 	0.8003	0.1789	0.5916	0.058
Mof_H 	H 	0.8455	0.2337	0.6889	-0.054
Mof_C 	C 	0.963	0.24	0.447	0.087
Mof_H 	H 	0.8095	0.2136	0.4436	0.096
Mof_H 	H 	0.8405	0.2191	0.3923	0.15
Mof_H 	H 	0.6749	0.1797	0.5984	0.052
Mof_O 	O 	0.8844	0.8136	0.3313	-0.26
Mof_O 	O 	0.4948	0.703	0.0541	-0.243
Mof_N 	N 	0.8032	0.6737	0.673	-0.269
Mof_N 	N 	0.5859	0.507	0.9087	-0.068
Mof_C 	C 	0.7238	0.6452	0.6259	0.091
Mof_H 	H 	0.6927	0.6606	0.54	0.002
Mof_C 	C 	0.6832	0.5929	0.6973	-0.181
Mof_H 	H 	0.6258	0.5744	0.66	0.102
Mof_C 	C 	0.7271	0.5693	0.8196	0.154
Mof_C 	C 	0.8104	0.5987	0.8721	-0.187
Mof_H 	H 	0.8423	0.5841	0.9583	0.094
Mof_C 	C 	0.8456	0.6498	0.7957	0.084
Mof_H 	H 	0.9027	0.6692	0.8314	-0.014
Mof_C 	C 	0.6906	0.5133	0.9005	-0.187
Mof_H 	H 	0.7171	0.476	0.8517	0.11
Mof_H 	H 	0.7166	0.5143	0.0023	0.093
Mof_C 	C 	0.5439	0.5576	0.9987	-0.063
Mof_H 	H 	0.5591	0.5978	0.9518	0.065
Mof_H 	H 	0.574	0.5573	0.0978	0.068
Mof_C 	C 	0.5628	0.4485	0.9857	-0.064
Mof_H 	H 	0.5934	0.4483	0.0845	0.061
Mof_H 	H 	0.5886	0.4131	0.9288	0.074
Mof_C 	C 	0.827	0.781	0.275	0.273
Mof_C 	C 	0.796	0.7819	0.138	0.166
Mof_H 	H 	0.8335	0.7613	0.0392	0.118
Mof_C 	C 	0.642	0.7712	0.966	-0.041
Mof_H 	H 	0.6592	0.8073	0.9044	-0.102
Mof_H 	H 	0.6767	0.7351	0.9244	-0.058
Mof_C 	C 	0.541	0.729	0.967	0.106
Mof_C 	C 	0.688	0.784	0.131	-0.032
Mof_H 	H 	0.6661	0.8248	0.1661	-0.089
Mof_H 	H 	0.6622	0.7523	0.2001	0.092
Mof_O 	O 	0.2152	0.623	0.248	-0.595
Mof_H 	H 	0.2641	0.6471	0.2297	0.296
Mof_H 	H 	0.1793	0.6393	0.3166	0.332
Mof_C 	C 	0.809	0.776	0.314	-0.143
Mof_H 	H 	0.8224	0.7457	0.0847	-0.192
Mof_H 	H 	0.7876	0.7044	0.1304	-0.22
Mof_C 	C 	0.695	0.776	0.102	-0.033
Mof_H 	H 	0.6997	0.8211	0.0916	0.058
Mof_H 	H 	0.6545	0.7663	0.1889	-0.054
Mof_C 	C 	0.537	0.76	0.947	0.086
Mof_H 	H 	0.6905	0.7864	0.9436	0.095
Mof_H 	H 	0.6595	0.7809	0.8923	0.151
Mof_H 	H 	0.8251	0.8203	0.0984	0.052
Mof_O 	O 	0.3844	0.6864	0.1687	-0.259
Mof_O 	O 	0.9948	0.797	0.4459	-0.243
Mof_N 	N 	0.3032	0.8263	0.827	-0.269
Mof_N 	N 	0.0859	0.993	0.5913	-0.069
Mof_C 	C 	0.2238	0.8548	0.8741	0.092
Mof_H 	H 	0.1927	0.8394	0.96	0
Mof_C 	C 	0.1832	0.9071	0.8027	-0.182
Mof_H 	H 	0.1258	0.9256	0.84	0.102
Mof_C 	C 	0.2271	0.9307	0.6804	0.155
Mof_C 	C 	0.3104	0.9013	0.6279	-0.188
Mof_H 	H 	0.3423	0.9159	0.5417	0.094
Mof_C 	C 	0.3456	0.8502	0.7043	0.084
Mof_H 	H 	0.4027	0.8308	0.6686	-0.014
Mof_C 	C 	0.1906	0.9867	0.5995	-0.191
Mof_H 	H 	0.2171	0.024	0.6483	0.112
Mof_H 	H 	0.2166	0.9857	0.4977	0.094
Mof_C 	C 	0.0439	0.9424	0.5013	-0.063
Mof_H 	H 	0.0591	0.9022	0.5482	0.065
Mof_H 	H 	0.074	0.9427	0.4022	0.068
Mof_C 	C 	0.0628	0.0515	0.5143	-0.064
Mof_H 	H 	0.0934	0.0517	0.4155	0.062
Mof_H 	H 	0.0886	0.0869	0.5712	0.074
Mof_C 	C 	0.327	0.719	0.225	0.272
Mof_C 	C 	0.296	0.7181	0.362	0.166
Mof_H 	H 	0.3335	0.7387	0.4608	0.117
Mof_C 	C 	0.142	0.7288	0.534	-0.04
Mof_H 	H 	0.1592	0.6927	0.5956	-0.102
Mof_H 	H 	0.1767	0.7649	0.5756	-0.058
Mof_C 	C 	0.041	0.771	0.533	0.104
Mof_C 	C 	0.188	0.716	0.369	-0.033
Mof_H 	H 	0.1661	0.6752	0.3339	-0.089
Mof_H 	H 	0.1622	0.7477	0.2999	0.092
Mof_O 	O 	0.7152	0.877	0.252	-0.596
Mof_H 	H 	0.7641	0.8529	0.2703	0.296
Mof_H 	H 	0.6793	0.8607	0.1834	0.332
Mof_C 	C 	0.309	0.724	0.186	-0.142
Mof_H 	H 	0.3224	0.7543	0.4153	-0.192
Mof_H 	H 	0.2876	0.7956	0.3696	-0.22
Mof_C 	C 	0.195	0.724	0.398	-0.033
Mof_H 	H 	0.1997	0.6789	0.4084	0.058
Mof_H 	H 	0.1545	0.7337	0.3111	-0.054
Mof_C 	C 	0.037	0.74	0.553	0.087
Mof_H 	H 	0.1905	0.7136	0.5564	0.096
Mof_H 	H 	0.1595	0.7191	0.6077	0.15
Mof_H 	H 	0.3251	0.6797	0.4016	0.052
Mof_O 	O 	0.1156	0.3136	0.6687	-0.26
Mof_O 	O 	0.5052	0.203	0.9459	-0.242
Mof_N 	N 	0.1968	0.1737	0.327	-0.269
Mof_N 	N 	0.4141	0.007	0.0913	-0.068
Mof_C 	C 	0.2762	0.1452	0.3741	0.092
Mof_H 	H 	0.3073	0.1606	0.46	0.001
Mof_C 	C 	0.3168	0.0929	0.3027	-0.182
Mof_H 	H 	0.3742	0.0744	0.34	0.103
Mof_C 	C 	0.2729	0.0693	0.1804	0.155
Mof_C 	C 	0.1896	0.0987	0.1279	-0.188
Mof_H 	H 	0.1577	0.0841	0.0417	0.095
Mof_C 	C 	0.1544	0.1498	0.2043	0.084
Mof_H 	H 	0.0973	0.1692	0.1686	-0.014
Mof_C 	C 	0.3094	0.0133	0.0995	-0.19
Mof_H 	H 	0.2829	0.976	0.1483	0.111
Mof_H 	H 	0.2834	0.0143	0.9977	0.094
Mof_C 	C 	0.4561	0.0576	0.0013	-0.067
Mof_H 	H 	0.4409	0.0978	0.0482	0.066
Mof_H 	H 	0.426	0.0573	0.9022	0.07
Mof_C 	C 	0.4372	0.9485	0.0143	-0.06
Mof_H 	H 	0.4066	0.9483	0.9155	0.059
Mof_H 	H 	0.4114	0.9131	0.0712	0.073
Mof_C 	C 	0.173	0.281	0.725	0.273
Mof_C 	C 	0.204	0.2819	0.862	0.166
Mof_H 	H 	0.1665	0.2613	0.9608	0.118
Mof_C 	C 	0.358	0.2712	0.034	-0.041
Mof_H 	H 	0.3408	0.3073	0.0956	-0.102
Mof_H 	H 	0.3233	0.2351	0.0756	-0.057
Mof_C 	C 	0.459	0.229	0.033	0.105
Mof_C 	C 	0.312	0.284	0.869	-0.032
Mof_H 	H 	0.3339	0.3248	0.8339	-0.089
Mof_H 	H 	0.3378	0.2523	0.7999	0.092
Mof_O 	O 	0.7848	0.123	0.752	-0.596
Mof_H 	H 	0.7359	0.1471	0.7703	0.296
Mof_H 	H 	0.8207	0.1393	0.6834	0.332
Mof_C 	C 	0.191	0.276	0.686	-0.143
Mof_H 	H 	0.1776	0.2457	0.9153	-0.192
Mof_H 	H 	0.2124	0.2044	0.8696	-0.22
Mof_C 	C 	0.305	0.276	0.898	-0.033
Mof_H 	H 	0.3003	0.3211	0.9084	0.058
Mof_H 	H 	0.3455	0.2663	0.8111	-0.054
Mof_C 	C 	0.463	0.26	0.053	0.086
Mof_H 	H 	0.3095	0.2864	0.0564	0.096
Mof_H 	H 	0.3405	0.2809	0.1077	0.151
Mof_H 	H 	0.1749	0.3203	0.9016	0.052
Mof_O 	O 	0.3844	0.8136	0.1687	-0.259
Mof_O 	O 	0.9948	0.703	0.4459	-0.244
Mof_N 	N 	0.3032	0.6737	0.827	-0.269
Mof_N 	N 	0.0859	0.507	0.5913	-0.068
Mof_C 	C 	0.2238	0.6452	0.8741	0.091
Mof_H 	H 	0.1927	0.6606	0.96	0
Mof_C 	C 	0.1832	0.5929	0.8027	-0.182
Mof_H 	H 	0.1258	0.5744	0.84	0.102
Mof_C 	C 	0.2271	0.5693	0.6804	0.154
Mof_C 	C 	0.3104	0.5987	0.6279	-0.187
Mof_H 	H 	0.3423	0.5841	0.5417	0.094
Mof_C 	C 	0.3456	0.6498	0.7043	0.084
Mof_H 	H 	0.4027	0.6692	0.6686	-0.014
Mof_C 	C 	0.1906	0.5133	0.5995	-0.189
Mof_H 	H 	0.2171	0.476	0.6483	0.11
Mof_H 	H 	0.2166	0.5143	0.4977	0.093
Mof_C 	C 	0.0439	0.5576	0.5013	-0.061
Mof_H 	H 	0.0591	0.5978	0.5482	0.064
Mof_H 	H 	0.074	0.5573	0.4022	0.067
Mof_C 	C 	0.0628	0.4485	0.5143	-0.067
Mof_H 	H 	0.0934	0.4483	0.4155	0.062
Mof_H 	H 	0.0886	0.4131	0.5712	0.074
Mof_C 	C 	0.327	0.781	0.225	0.272
Mof_C 	C 	0.296	0.7819	0.362	0.166
Mof_H 	H 	0.3335	0.7613	0.4608	0.117
Mof_C 	C 	0.142	0.7712	0.534	-0.04
Mof_H 	H 	0.1592	0.8073	0.5956	-0.102
Mof_H 	H 	0.1767	0.7351	0.5756	-0.058
Mof_C 	C 	0.041	0.729	0.533	0.105
Mof_C 	C 	0.188	0.784	0.369	-0.033
Mof_H 	H 	0.1661	0.8248	0.3339	-0.089
Mof_H 	H 	0.1622	0.7523	0.2999	0.092
Mof_O 	O 	0.7152	0.623	0.252	-0.596
Mof_H 	H 	0.7641	0.6471	0.2703	0.296
Mof_H 	H 	0.6793	0.6393	0.1834	0.332
Mof_C 	C 	0.309	0.776	0.186	-0.142
Mof_H 	H 	0.3224	0.7457	0.4153	-0.192
Mof_H 	H 	0.2876	0.7044	0.3696	-0.22
Mof_C 	C 	0.195	0.776	0.398	-0.033
Mof_H 	H 	0.1997	0.8211	0.4084	0.058
Mof_H 	H 	0.1545	0.7663	0.3111	-0.054
Mof_C 	C 	0.037	0.76	0.553	0.087
Mof_H 	H 	0.1905	0.7864	0.5564	0.096
Mof_H 	H 	0.1595	0.7809	0.6077	0.15
Mof_H 	H 	0.3251	0.8203	0.4016	0.052
Mof_O 	O 	0.1156	0.1864	0.6687	-0.26
Mof_O 	O 	0.5052	0.297	0.9459	-0.243
Mof_N 	N 	0.1968	0.3263	0.327	-0.269
Mof_N 	N 	0.4141	0.493	0.0913	-0.068
Mof_C 	C 	0.2762	0.3548	0.3741	0.091
Mof_H 	H 	0.3073	0.3394	0.46	0.002
Mof_C 	C 	0.3168	0.4071	0.3027	-0.181
Mof_H 	H 	0.3742	0.4256	0.34	0.102
Mof_C 	C 	0.2729	0.4307	0.1804	0.154
Mof_C 	C 	0.1896	0.4013	0.1279	-0.187
Mof_H 	H 	0.1577	0.4159	0.0417	0.094
Mof_C 	C 	0.1544	0.3502	0.2043	0.084
Mof_H 	H 	0.0973	0.3308	0.1686	-0.014
Mof_C 	C 	0.3094	0.4867	0.0995	-0.187
Mof_H 	H 	0.2829	0.524	0.1483	0.11
Mof_H 	H 	0.2834	0.4857	0.9977	0.093
Mof_C 	C 	0.4561	0.4424	0.0013	-0.063
Mof_H 	H 	0.4409	0.4022	0.0482	0.065
Mof_H 	H 	0.426	0.4427	0.9022	0.068
Mof_C 	C 	0.4372	0.5515	0.0143	-0.064
Mof_H 	H 	0.4066	0.5517	0.9155	0.061
Mof_H 	H 	0.4114	0.5869	0.0712	0.074
Mof_C 	C 	0.173	0.219	0.725	0.273
Mof_C 	C 	0.204	0.2181	0.862	0.166
Mof_H 	H 	0.1665	0.2387	0.9608	0.118
Mof_C 	C 	0.358	0.2288	0.034	-0.041
Mof_H 	H 	0.3408	0.1927	0.0956	-0.102
Mof_H 	H 	0.3233	0.2649	0.0756	-0.058
Mof_C 	C 	0.459	0.271	0.033	0.106
Mof_C 	C 	0.312	0.216	0.869	-0.032
Mof_H 	H 	0.3339	0.1752	0.8339	-0.089
Mof_H 	H 	0.3378	0.2477	0.7999	0.092
Mof_O 	O 	0.7848	0.377	0.752	-0.595
Mof_H 	H 	0.7359	0.3529	0.7703	0.296
Mof_H 	H 	0.8207	0.3607	0.6834	0.332
Mof_C 	C 	0.191	0.224	0.686	-0.143
Mof_H 	H 	0.1776	0.2543	0.9153	-0.192
Mof_H 	H 	0.2124	0.2956	0.8696	-0.22
Mof_C 	C 	0.305	0.224	0.898	-0.033
Mof_H 	H 	0.3003	0.1789	0.9084	0.058
Mof_H 	H 	0.3455	0.2337	0.8111	-0.054
Mof_C 	C 	0.463	0.24	0.053	0.086
Mof_H 	H 	0.3095	0.2136	0.0564	0.095
Mof_H 	H 	0.3405	0.2191	0.1077	0.151
Mof_H 	H 	0.1749	0.1797	0.9016	0.052
Mof_O 	O 	0.6156	0.3136	0.8313	-0.259
Mof_O 	O 	0.0052	0.203	0.5541	-0.243
Mof_N 	N 	0.6968	0.1737	0.173	-0.269
Mof_N 	N 	0.9141	0.007	0.4087	-0.069
Mof_C 	C 	0.7762	0.1452	0.1259	0.092
Mof_H 	H 	0.8073	0.1606	0.04	0
Mof_C 	C 	0.8168	0.0929	0.1973	-0.182
Mof_H 	H 	0.8742	0.0744	0.16	0.102
Mof_C 	C 	0.7729	0.0693	0.3196	0.155
Mof_C 	C 	0.6896	0.0987	0.3721	-0.188
Mof_H 	H 	0.6577	0.0841	0.4583	0.094
Mof_C 	C 	0.6544	0.1498	0.2957	0.084
Mof_H 	H 	0.5973	0.1692	0.3314	-0.014
Mof_C 	C 	0.8094	0.0133	0.4005	-0.191
Mof_H 	H 	0.7829	0.976	0.3517	0.112
Mof_H 	H 	0.7834	0.0143	0.5023	0.094
Mof_C 	C 	0.9561	0.0576	0.4987	-0.063
Mof_H 	H 	0.9409	0.0978	0.4518	0.065
Mof_H 	H 	0.926	0.0573	0.5978	0.068
Mof_C 	C 	0.9372	0.9485	0.4857	-0.064
Mof_H 	H 	0.9066	0.9483	0.5845	0.062
Mof_H 	H 	0.9114	0.9131	0.4288	0.074
Mof_C 	C 	0.673	0.281	0.775	0.272
Mof_C 	C 	0.704	0.2819	0.638	0.166
Mof_H 	H 	0.6665	0.2613	0.5392	0.117
Mof_C 	C 	0.858	0.2712	0.466	-0.04
Mof_H 	H 	0.8408	0.3073	0.4044	-0.102
Mof_H 	H 	0.8233	0.2351	0.4244	-0.058
Mof_C 	C 	0.959	0.229	0.467	0.104
Mof_C 	C 	0.812	0.284	0.631	-0.033
Mof_H 	H 	0.8339	0.3248	0.6661	-0.089
Mof_H 	H 	0.8378	0.2523	0.7001	0.092
Mof_O 	O 	0.2848	0.123	0.748	-0.596
Mof_H 	H 	0.2359	0.1471	0.7297	0.296
Mof_H 	H 	0.3207	0.1393	0.8166	0.332
Mof_C 	C 	0.691	0.276	0.814	-0.142
Mof_H 	H 	0.6776	0.2457	0.5847	-0.192
Mof_H 	H 	0.7124	0.2044	0.6304	-0.22
Mof_C 	C 	0.805	0.276	0.602	-0.033
Mof_H 	H 	0.8003	0.3211	0.5916	0.058
Mof_H 	H 	0.8455	0.2663	0.6889	-0.054
Mof_C 	C 	0.963	0.26	0.447	0.087
Mof_H 	H 	0.8095	0.2864	0.4436	0.096
Mof_H 	H 	0.8405	0.2809	0.3923	0.15
Mof_H 	H 	0.6749	0.3203	0.5984	0.052
Mof_O 	O 	0.8844	0.6864	0.3313	-0.26
Mof_O 	O 	0.4948	0.797	0.0541	-0.242
Mof_N 	N 	0.8032	0.8263	0.673	-0.269
Mof_N 	N 	0.5859	0.993	0.9087	-0.068
Mof_C 	C 	0.7238	0.8548	0.6259	0.092
Mof_H 	H 	0.6927	0.8394	0.54	0.001
Mof_C 	C 	0.6832	0.9071	0.6973	-0.182
Mof_H 	H 	0.6258	0.9256	0.66	0.103
Mof_C 	C 	0.7271	0.9307	0.8196	0.155
Mof_C 	C 	0.8104	0.9013	0.8721	-0.188
Mof_H 	H 	0.8423	0.9159	0.9583	0.095
Mof_C 	C 	0.8456	0.8502	0.7957	0.084
Mof_H 	H 	0.9027	0.8308	0.8314	-0.014
Mof_C 	C 	0.6906	0.9867	0.9005	-0.19
Mof_H 	H 	0.7171	0.024	0.8517	0.111
Mof_H 	H 	0.7166	0.9857	0.0023	0.094
Mof_C 	C 	0.5439	0.9424	0.9987	-0.067
Mof_H 	H 	0.5591	0.9022	0.9518	0.066
Mof_H 	H 	0.574	0.9427	0.0978	0.07
Mof_C 	C 	0.5628	0.0515	0.9857	-0.06
Mof_H 	H 	0.5934	0.0517	0.0845	0.059
Mof_H 	H 	0.5886	0.0869	0.9288	0.073
Mof_C 	C 	0.827	0.719	0.275	0.273
Mof_C 	C 	0.796	0.7181	0.138	0.166
Mof_H 	H 	0.8335	0.7387	0.0392	0.118
Mof_C 	C 	0.642	0.7288	0.966	-0.041
Mof_H 	H 	0.6592	0.6927	0.9044	-0.102
Mof_H 	H 	0.6767	0.7649	0.9244	-0.057
Mof_C 	C 	0.541	0.771	0.967	0.105
Mof_C 	C 	0.688	0.716	0.131	-0.032
Mof_H 	H 	0.6661	0.6752	0.1661	-0.089
Mof_H 	H 	0.6622	0.7477	0.2001	0.092
Mof_O 	O 	0.2152	0.877	0.248	-0.596
Mof_H 	H 	0.2641	0.8529	0.2297	0.296
Mof_H 	H 	0.1793	0.8607	0.3166	0.332
Mof_C 	C 	0.809	0.724	0.314	-0.143
Mof_H 	H 	0.8224	0.7543	0.0847	-0.192
Mof_H 	H 	0.7876	0.7956	0.1304	-0.22
Mof_C 	C 	0.695	0.724	0.102	-0.033
Mof_H 	H 	0.6997	0.6789	0.0916	0.058
Mof_H 	H 	0.6545	0.7337	0.1889	-0.054
Mof_C 	C 	0.537	0.74	0.947	0.086
Mof_H 	H 	0.6905	0.7136	0.9436	0.096
Mof_H 	H 	0.6595	0.7191	0.8923	0.151
Mof_H 	H 	0.8251	0.6797	0.0984	0.052
Mof_Zn	Zn	0.6421	0.25	0.06785	1.223
Mof_O 	O 	0.7153	0.25	0.8863	-0.323
Mof_O 	O 	0.0045	0.25	0.3546	-0.45
Mof_C 	C 	0.71	0.25	0.622	0.24
Mof_C 	C 	0.849	0.25	0.472	-0.138
Mof_Zn	Zn	0.8579	0.75	0.56785	1.224
Mof_O 	O 	0.7847	0.75	0.3863	-0.324
Mof_O 	O 	0.4955	0.75	0.8546	-0.451
Mof_C 	C 	0.79	0.75	0.122	0.241
Mof_C 	C 	0.651	0.75	0.972	-0.139
Mof_Zn	Zn	0.3579	0.75	0.93215	1.223
Mof_O 	O 	0.2847	0.75	0.1137	-0.323
Mof_O 	O 	0.9955	0.75	0.6454	-0.45
Mof_C 	C 	0.29	0.75	0.378	0.24
Mof_C 	C 	0.151	0.75	0.528	-0.138
Mof_Zn	Zn	0.1421	0.25	0.43215	1.224
Mof_O 	O 	0.2153	0.25	0.6137	-0.324
Mof_O 	O 	0.5045	0.25	0.1454	-0.451
Mof_C 	C 	0.21	0.25	0.878	0.241
Mof_C 	C 	0.349	0.25	0.028	-0.139
_end
