data_functionalizedCrystal
_audit_creation_method	'EQeq! by Chris Wilmer'
_symmetry_space_group_name_H-M	'P1'
_symmetry_Int_Tables_number	1
_symmetry_cell_setting	triclinic
loop_
_symmetry_equiv_pos_as_xyz
  x,y,z
_cell_length_a	15.9731
_cell_length_b	15.9731
_cell_length_c	18.4149
_cell_angle_alpha	90
_cell_angle_beta	90
_cell_angle_gamma	120
loop_
_atom_site_label
_atom_site_type_symbol
_atom_site_fract_x
_atom_site_fract_y
_atom_site_fract_z
_atom_site_charge
Mof_P 	P 	0.4503	0.28992	0.08236	0.41
Mof_O 	O 	0.48149	0.2137	0.08028	-0.364
Mof_O 	O 	0.53726	0.39316	0.07897	-0.381
Mof_O 	O 	0.38931	0.27739	0.14777	-0.407
Mof_H 	H 	0.484	0.526	0.1407	0.37
Mof_H 	H 	0.3251	0.36	0.9584	0.048
Mof_H 	H 	0.3399	0.131	0.9781	0.052
Mof_H 	H 	0.298	0.321	0.967	-0.038
Mof_H 	H 	0.3291	0.3626	0.0434	0.049
Mof_H 	H 	0.4242	0.4218	0.9982	0.127
Mof_H 	H 	0.291	0.1403	0.0491	0.05
Mof_H 	H 	0.2515	0.1478	0.9729	0.06
Mof_H 	H 	0.253	0.185	0.969	-0.03
Mof_P 	P 	0.71008	0.16038	0.08236	0.407
Mof_O 	O 	0.7863	0.26779	0.08028	-0.358
Mof_O 	O 	0.60684	0.1441	0.07897	-0.386
Mof_O 	O 	0.72261	0.11192	0.14777	-0.403
Mof_H 	H 	0.474	0.958	0.1407	0.434
Mof_H 	H 	0.64	0.9651	0.9584	0.076
Mof_H 	H 	0.869	0.2089	0.9781	0.057
Mof_H 	H 	0.679	0.977	0.967	-0.058
Mof_H 	H 	0.6374	0.9665	0.0434	0.072
Mof_H 	H 	0.5782	0.0024	0.9982	0.135
Mof_H 	H 	0.8597	0.1507	0.0491	0.056
Mof_H 	H 	0.8522	0.1037	0.9729	0.077
Mof_H 	H 	0.815	0.068	0.969	-0.036
Mof_P 	P 	0.83962	0.5497	0.08236	0.407
Mof_O 	O 	0.73221	0.51851	0.08028	-0.363
Mof_O 	O 	0.8559	0.46274	0.07897	-0.377
Mof_O 	O 	0.88808	0.61069	0.14777	-0.379
Mof_H 	H 	0.042	0.516	0.1407	0.383
Mof_H 	H 	0.0349	0.6749	0.9584	0.022
Mof_H 	H 	0.7911	0.6601	0.9781	0.055
Mof_H 	H 	0.023	0.702	0.967	-0.012
Mof_H 	H 	0.0335	0.6709	0.0434	0.026
Mof_H 	H 	0.9976	0.5758	0.9982	0.118
Mof_H 	H 	0.8493	0.709	0.0491	0.065
Mof_H 	H 	0.8963	0.7485	0.9729	0.062
Mof_H 	H 	0.932	0.747	0.969	-0.008
Mof_P 	P 	0.5497	0.71008	0.08236	0.407
Mof_O 	O 	0.51851	0.7863	0.08028	-0.359
Mof_O 	O 	0.46274	0.60684	0.07897	-0.381
Mof_O 	O 	0.61069	0.72261	0.14777	-0.398
Mof_H 	H 	0.516	0.474	0.1407	0.37
Mof_H 	H 	0.6749	0.64	0.9584	0.048
Mof_H 	H 	0.6601	0.869	0.9781	0.057
Mof_H 	H 	0.702	0.679	0.967	-0.036
Mof_H 	H 	0.6709	0.6374	0.0434	0.049
Mof_H 	H 	0.5758	0.5782	0.9982	0.128
Mof_H 	H 	0.709	0.8597	0.0491	0.064
Mof_H 	H 	0.7485	0.8522	0.9729	0.073
Mof_H 	H 	0.747	0.815	0.969	-0.02
Mof_P 	P 	0.28992	0.83962	0.08236	0.408
Mof_O 	O 	0.2137	0.73221	0.08028	-0.363
Mof_O 	O 	0.39316	0.8559	0.07897	-0.377
Mof_O 	O 	0.27739	0.88808	0.14777	-0.382
Mof_H 	H 	0.526	0.042	0.1407	0.383
Mof_H 	H 	0.36	0.0349	0.9584	0.022
Mof_H 	H 	0.131	0.7911	0.9781	0.053
Mof_H 	H 	0.321	0.023	0.967	-0.014
Mof_H 	H 	0.3626	0.0335	0.0434	0.026
Mof_H 	H 	0.4218	0.9976	0.9982	0.116
Mof_H 	H 	0.1403	0.8493	0.0491	0.059
Mof_H 	H 	0.1478	0.8963	0.9729	0.057
Mof_H 	H 	0.185	0.932	0.969	-0.012
Mof_P 	P 	0.16038	0.4503	0.08236	0.408
Mof_O 	O 	0.26779	0.48149	0.08028	-0.363
Mof_O 	O 	0.1441	0.53726	0.07897	-0.386
Mof_O 	O 	0.11192	0.38931	0.14777	-0.409
Mof_H 	H 	0.958	0.484	0.1407	0.434
Mof_H 	H 	0.9651	0.3251	0.9584	0.076
Mof_H 	H 	0.2089	0.3399	0.9781	0.053
Mof_H 	H 	0.977	0.298	0.967	-0.059
Mof_H 	H 	0.9665	0.3291	0.0434	0.073
Mof_H 	H 	0.0024	0.4242	0.9982	0.135
Mof_H 	H 	0.1507	0.291	0.0491	0.048
Mof_H 	H 	0.1037	0.2515	0.9729	0.069
Mof_H 	H 	0.068	0.253	0.969	-0.041
Mof_P 	P 	0.28992	0.4503	0.41764	0.403
Mof_O 	O 	0.2137	0.48149	0.41972	-0.361
Mof_O 	O 	0.39316	0.53726	0.42103	-0.38
Mof_O 	O 	0.27739	0.38931	0.35223	-0.408
Mof_H 	H 	0.526	0.484	0.3593	0.368
Mof_H 	H 	0.36	0.3251	0.5416	0.057
Mof_H 	H 	0.131	0.3399	0.5219	0.103
Mof_H 	H 	0.321	0.298	0.533	-0.004
Mof_H 	H 	0.3626	0.3291	0.4566	0.054
Mof_H 	H 	0.4218	0.4242	0.5018	0.062
Mof_H 	H 	0.1403	0.291	0.4509	0.08
Mof_H 	H 	0.1478	0.2515	0.5271	0.136
Mof_H 	H 	0.185	0.253	0.531	-0.036
Mof_P 	P 	0.16038	0.71008	0.41764	0.4
Mof_O 	O 	0.26779	0.7863	0.41972	-0.355
Mof_O 	O 	0.1441	0.60684	0.42103	-0.384
Mof_O 	O 	0.11192	0.72261	0.35223	-0.403
Mof_H 	H 	0.958	0.474	0.3593	0.432
Mof_H 	H 	0.9651	0.64	0.5416	0.085
Mof_H 	H 	0.2089	0.869	0.5219	0.109
Mof_H 	H 	0.977	0.679	0.533	-0.022
Mof_H 	H 	0.9665	0.6374	0.4566	0.078
Mof_H 	H 	0.0024	0.5782	0.5018	0.073
Mof_H 	H 	0.1507	0.8597	0.4509	0.088
Mof_H 	H 	0.1037	0.8522	0.5271	0.157
Mof_H 	H 	0.068	0.815	0.531	-0.043
Mof_P 	P 	0.5497	0.83962	0.41764	0.4
Mof_O 	O 	0.51851	0.73221	0.41972	-0.36
Mof_O 	O 	0.46274	0.8559	0.42103	-0.376
Mof_O 	O 	0.61069	0.88808	0.35223	-0.38
Mof_H 	H 	0.516	0.042	0.3593	0.381
Mof_H 	H 	0.6749	0.0349	0.5416	0.031
Mof_H 	H 	0.6601	0.7911	0.5219	0.109
Mof_H 	H 	0.702	0.023	0.533	0.021
Mof_H 	H 	0.6709	0.0335	0.4566	0.031
Mof_H 	H 	0.5758	0.9976	0.5018	0.051
Mof_H 	H 	0.709	0.8493	0.4509	0.097
Mof_H 	H 	0.7485	0.8963	0.5271	0.144
Mof_H 	H 	0.747	0.932	0.531	-0.013
Mof_P 	P 	0.71008	0.5497	0.41764	0.4
Mof_O 	O 	0.7863	0.51851	0.41972	-0.356
Mof_O 	O 	0.60684	0.46274	0.42103	-0.38
Mof_O 	O 	0.72261	0.61069	0.35223	-0.399
Mof_H 	H 	0.474	0.516	0.3593	0.368
Mof_H 	H 	0.64	0.6749	0.5416	0.057
Mof_H 	H 	0.869	0.6601	0.5219	0.111
Mof_H 	H 	0.679	0.702	0.533	-0
Mof_H 	H 	0.6374	0.6709	0.4566	0.054
Mof_H 	H 	0.5782	0.5758	0.5018	0.062
Mof_H 	H 	0.8597	0.709	0.4509	0.096
Mof_H 	H 	0.8522	0.7485	0.5271	0.155
Mof_H 	H 	0.815	0.747	0.531	-0.026
Mof_P 	P 	0.83962	0.28992	0.41764	0.401
Mof_O 	O 	0.73221	0.2137	0.41972	-0.361
Mof_O 	O 	0.8559	0.39316	0.42103	-0.376
Mof_O 	O 	0.88808	0.27739	0.35223	-0.383
Mof_H 	H 	0.042	0.526	0.3593	0.381
Mof_H 	H 	0.0349	0.36	0.5416	0.03
Mof_H 	H 	0.7911	0.131	0.5219	0.106
Mof_H 	H 	0.023	0.321	0.533	0.019
Mof_H 	H 	0.0335	0.3626	0.4566	0.031
Mof_H 	H 	0.9976	0.4218	0.5018	0.051
Mof_H 	H 	0.8493	0.1403	0.4509	0.09
Mof_H 	H 	0.8963	0.1478	0.5271	0.134
Mof_H 	H 	0.932	0.185	0.531	-0.017
Mof_P 	P 	0.4503	0.16038	0.41764	0.401
Mof_O 	O 	0.48149	0.26779	0.41972	-0.36
Mof_O 	O 	0.53726	0.1441	0.42103	-0.384
Mof_O 	O 	0.38931	0.11192	0.35223	-0.409
Mof_H 	H 	0.484	0.958	0.3593	0.432
Mof_H 	H 	0.3251	0.9651	0.5416	0.085
Mof_H 	H 	0.3399	0.2089	0.5219	0.105
Mof_H 	H 	0.298	0.977	0.533	-0.024
Mof_H 	H 	0.3291	0.9665	0.4566	0.078
Mof_H 	H 	0.4242	0.0024	0.5018	0.072
Mof_H 	H 	0.291	0.1507	0.4509	0.079
Mof_H 	H 	0.2515	0.1037	0.5271	0.148
Mof_H 	H 	0.253	0.068	0.531	-0.048
Mof_P 	P 	0.5497	0.71008	0.91764	0.388
Mof_O 	O 	0.51851	0.7863	0.91972	-0.374
Mof_O 	O 	0.46274	0.60684	0.92103	-0.4
Mof_O 	O 	0.61069	0.72261	0.85223	-0.398
Mof_H 	H 	0.516	0.474	0.8593	0.365
Mof_H 	H 	0.6749	0.64	0.0416	0.052
Mof_H 	H 	0.6601	0.869	0.0219	0.15
Mof_H 	H 	0.702	0.679	0.033	-0.002
Mof_H 	H 	0.6709	0.6374	0.9566	0.05
Mof_H 	H 	0.5758	0.5782	0.0018	-0.02
Mof_H 	H 	0.709	0.8597	0.9509	0.112
Mof_H 	H 	0.7485	0.8522	0.0271	0.192
Mof_H 	H 	0.747	0.815	0.031	-0.061
Mof_P 	P 	0.28992	0.83962	0.91764	0.388
Mof_O 	O 	0.2137	0.73221	0.91972	-0.378
Mof_O 	O 	0.39316	0.8559	0.92103	-0.396
Mof_O 	O 	0.27739	0.88808	0.85223	-0.383
Mof_H 	H 	0.526	0.042	0.8593	0.378
Mof_H 	H 	0.36	0.0349	0.0416	0.026
Mof_H 	H 	0.131	0.7911	0.0219	0.142
Mof_H 	H 	0.321	0.023	0.033	0.017
Mof_H 	H 	0.3626	0.0335	0.9566	0.027
Mof_H 	H 	0.4218	0.9976	0.0018	-0.031
Mof_H 	H 	0.1403	0.8493	0.9509	0.105
Mof_H 	H 	0.1478	0.8963	0.0271	0.17
Mof_H 	H 	0.185	0.932	0.031	-0.05
Mof_P 	P 	0.16038	0.4503	0.91764	0.389
Mof_O 	O 	0.26779	0.48149	0.91972	-0.378
Mof_O 	O 	0.1441	0.53726	0.92103	-0.404
Mof_O 	O 	0.11192	0.38931	0.85223	-0.409
Mof_H 	H 	0.958	0.484	0.8593	0.427
Mof_H 	H 	0.9651	0.3251	0.0416	0.08
Mof_H 	H 	0.2089	0.3399	0.0219	0.142
Mof_H 	H 	0.977	0.298	0.033	-0.026
Mof_H 	H 	0.9665	0.3291	0.9566	0.074
Mof_H 	H 	0.0024	0.4242	0.0018	-0.006
Mof_H 	H 	0.1507	0.291	0.9509	0.095
Mof_H 	H 	0.1037	0.2515	0.0271	0.184
Mof_H 	H 	0.068	0.253	0.031	-0.082
Mof_P 	P 	0.4503	0.28992	0.91764	0.39
Mof_O 	O 	0.48149	0.2137	0.91972	-0.379
Mof_O 	O 	0.53726	0.39316	0.92103	-0.4
Mof_O 	O 	0.38931	0.27739	0.85223	-0.407
Mof_H 	H 	0.484	0.526	0.8593	0.365
Mof_H 	H 	0.3251	0.36	0.0416	0.052
Mof_H 	H 	0.3399	0.131	0.0219	0.14
Mof_H 	H 	0.298	0.321	0.033	-0.006
Mof_H 	H 	0.3291	0.3626	0.9566	0.05
Mof_H 	H 	0.4242	0.4218	0.0018	-0.02
Mof_H 	H 	0.291	0.1403	0.9509	0.096
Mof_H 	H 	0.2515	0.1478	0.0271	0.172
Mof_H 	H 	0.253	0.185	0.031	-0.068
Mof_P 	P 	0.71008	0.16038	0.91764	0.388
Mof_O 	O 	0.7863	0.26779	0.91972	-0.373
Mof_O 	O 	0.60684	0.1441	0.92103	-0.404
Mof_O 	O 	0.72261	0.11192	0.85223	-0.403
Mof_H 	H 	0.474	0.958	0.8593	0.427
Mof_H 	H 	0.64	0.9651	0.0416	0.08
Mof_H 	H 	0.869	0.2089	0.0219	0.147
Mof_H 	H 	0.679	0.977	0.033	-0.024
Mof_H 	H 	0.6374	0.9665	0.9566	0.073
Mof_H 	H 	0.5782	0.0024	0.0018	-0.006
Mof_H 	H 	0.8597	0.1507	0.9509	0.104
Mof_H 	H 	0.8522	0.1037	0.0271	0.194
Mof_H 	H 	0.815	0.068	0.031	-0.077
Mof_P 	P 	0.83962	0.5497	0.91764	0.387
Mof_O 	O 	0.73221	0.51851	0.91972	-0.378
Mof_O 	O 	0.8559	0.46274	0.92103	-0.396
Mof_O 	O 	0.88808	0.61069	0.85223	-0.38
Mof_H 	H 	0.042	0.516	0.8593	0.378
Mof_H 	H 	0.0349	0.6749	0.0416	0.026
Mof_H 	H 	0.7911	0.6601	0.0219	0.147
Mof_H 	H 	0.023	0.702	0.033	0.019
Mof_H 	H 	0.0335	0.6709	0.9566	0.027
Mof_H 	H 	0.9976	0.5758	0.0018	-0.032
Mof_H 	H 	0.8493	0.709	0.9509	0.113
Mof_H 	H 	0.8963	0.7485	0.0271	0.181
Mof_H 	H 	0.932	0.747	0.031	-0.048
Mof_P 	P 	0.71008	0.5497	0.58236	0.4
Mof_O 	O 	0.7863	0.51851	0.58028	-0.356
Mof_O 	O 	0.60684	0.46274	0.57897	-0.38
Mof_O 	O 	0.72261	0.61069	0.64777	-0.399
Mof_H 	H 	0.474	0.516	0.6407	0.368
Mof_H 	H 	0.64	0.6749	0.4584	0.057
Mof_H 	H 	0.869	0.6601	0.4781	0.111
Mof_H 	H 	0.679	0.702	0.467	-0
Mof_H 	H 	0.6374	0.6709	0.5434	0.054
Mof_H 	H 	0.5782	0.5758	0.4982	0.062
Mof_H 	H 	0.8597	0.709	0.5491	0.096
Mof_H 	H 	0.8522	0.7485	0.4729	0.154
Mof_H 	H 	0.815	0.747	0.469	-0.026
Mof_P 	P 	0.83962	0.28992	0.58236	0.401
Mof_O 	O 	0.73221	0.2137	0.58028	-0.361
Mof_O 	O 	0.8559	0.39316	0.57897	-0.376
Mof_O 	O 	0.88808	0.27739	0.64777	-0.383
Mof_H 	H 	0.042	0.526	0.6407	0.381
Mof_H 	H 	0.0349	0.36	0.4584	0.03
Mof_H 	H 	0.7911	0.131	0.4781	0.105
Mof_H 	H 	0.023	0.321	0.467	0.019
Mof_H 	H 	0.0335	0.3626	0.5434	0.031
Mof_H 	H 	0.9976	0.4218	0.4982	0.051
Mof_H 	H 	0.8493	0.1403	0.5491	0.089
Mof_H 	H 	0.8963	0.1478	0.4729	0.134
Mof_H 	H 	0.932	0.185	0.469	-0.017
Mof_P 	P 	0.4503	0.16038	0.58236	0.401
Mof_O 	O 	0.48149	0.26779	0.58028	-0.36
Mof_O 	O 	0.53726	0.1441	0.57897	-0.384
Mof_O 	O 	0.38931	0.11192	0.64777	-0.409
Mof_H 	H 	0.484	0.958	0.6407	0.431
Mof_H 	H 	0.3251	0.9651	0.4584	0.085
Mof_H 	H 	0.3399	0.2089	0.4781	0.105
Mof_H 	H 	0.298	0.977	0.467	-0.024
Mof_H 	H 	0.3291	0.9665	0.5434	0.078
Mof_H 	H 	0.4242	0.0024	0.4982	0.072
Mof_H 	H 	0.291	0.1507	0.5491	0.079
Mof_H 	H 	0.2515	0.1037	0.4729	0.147
Mof_H 	H 	0.253	0.068	0.469	-0.048
Mof_P 	P 	0.28992	0.4503	0.58236	0.403
Mof_O 	O 	0.2137	0.48149	0.58028	-0.361
Mof_O 	O 	0.39316	0.53726	0.57897	-0.38
Mof_O 	O 	0.27739	0.38931	0.64777	-0.408
Mof_H 	H 	0.526	0.484	0.6407	0.368
Mof_H 	H 	0.36	0.3251	0.4584	0.056
Mof_H 	H 	0.131	0.3399	0.4781	0.103
Mof_H 	H 	0.321	0.298	0.467	-0.004
Mof_H 	H 	0.3626	0.3291	0.5434	0.054
Mof_H 	H 	0.4218	0.4242	0.4982	0.062
Mof_H 	H 	0.1403	0.291	0.5491	0.08
Mof_H 	H 	0.1478	0.2515	0.4729	0.136
Mof_H 	H 	0.185	0.253	0.469	-0.035
Mof_P 	P 	0.16038	0.71008	0.58236	0.4
Mof_O 	O 	0.26779	0.7863	0.58028	-0.355
Mof_O 	O 	0.1441	0.60684	0.57897	-0.384
Mof_O 	O 	0.11192	0.72261	0.64777	-0.403
Mof_H 	H 	0.958	0.474	0.6407	0.431
Mof_H 	H 	0.9651	0.64	0.4584	0.085
Mof_H 	H 	0.2089	0.869	0.4781	0.109
Mof_H 	H 	0.977	0.679	0.467	-0.022
Mof_H 	H 	0.9665	0.6374	0.5434	0.078
Mof_H 	H 	0.0024	0.5782	0.4982	0.073
Mof_H 	H 	0.1507	0.8597	0.5491	0.087
Mof_H 	H 	0.1037	0.8522	0.4729	0.157
Mof_H 	H 	0.068	0.815	0.469	-0.043
Mof_P 	P 	0.5497	0.83962	0.58236	0.4
Mof_O 	O 	0.51851	0.73221	0.58028	-0.36
Mof_O 	O 	0.46274	0.8559	0.57897	-0.376
Mof_O 	O 	0.61069	0.88808	0.64777	-0.38
Mof_H 	H 	0.516	0.042	0.6407	0.381
Mof_H 	H 	0.6749	0.0349	0.4584	0.03
Mof_H 	H 	0.6601	0.7911	0.4781	0.109
Mof_H 	H 	0.702	0.023	0.467	0.021
Mof_H 	H 	0.6709	0.0335	0.5434	0.031
Mof_H 	H 	0.5758	0.9976	0.4982	0.051
Mof_H 	H 	0.709	0.8493	0.5491	0.096
Mof_H 	H 	0.7485	0.8963	0.4729	0.143
Mof_H 	H 	0.747	0.932	0.469	-0.013
Mof_Pd	Pd	0.63688	0.4496	-0	0.667
Mof_C 	C 	0.3787	0.274	-0	0.059
Mof_O 	O 	0.2883	0.1836	-0	0.015
Mof_C 	C 	0.3627	0.3633	-0	-0.46
Mof_C 	C 	0.3085	0.1626	-0	-0.545
Mof_O 	O 	0.3386	0.337	-0	0.101
Mof_Pd	Pd	0.5504	0.18728	-0	0.66
Mof_C 	C 	0.726	0.1047	-0	0.06
Mof_O 	O 	0.8164	0.1047	-0	-0.008
Mof_C 	C 	0.6367	0.9994	-0	-0.661
Mof_C 	C 	0.8374	0.1459	-0	-0.549
Mof_O 	O 	0.663	0.0016	-0	0.231
Mof_Pd	Pd	0.81272	0.36312	-0	0.674
Mof_C 	C 	0.8953	0.6213	-0	0.077
Mof_O 	O 	0.8953	0.7117	-0	0.001
Mof_C 	C 	0.0006	0.6373	-0	-0.266
Mof_C 	C 	0.8541	0.6915	-0	-0.566
Mof_O 	O 	0.9984	0.6614	-0	-0.034
Mof_Pd	Pd	0.36312	0.5504	-0	0.667
Mof_C 	C 	0.6213	0.726	-0	0.07
Mof_O 	O 	0.7117	0.8164	-0	-0.009
Mof_C 	C 	0.6373	0.6367	-0	-0.464
Mof_C 	C 	0.6915	0.8374	-0	-0.56
Mof_O 	O 	0.6614	0.663	-0	0.1
Mof_Pd	Pd	0.4496	0.81272	-0	0.674
Mof_C 	C 	0.274	0.8953	-0	0.071
Mof_O 	O 	0.1836	0.8953	-0	0.01
Mof_C 	C 	0.3633	0.0006	-0	-0.265
Mof_C 	C 	0.1626	0.8541	-0	-0.558
Mof_O 	O 	0.337	0.9984	-0	-0.032
Mof_Pd	Pd	0.18728	0.63688	-0	0.659
Mof_C 	C 	0.1047	0.3787	-0	0.054
Mof_O 	O 	0.1047	0.2883	-0	0.006
Mof_C 	C 	0.9994	0.3627	-0	-0.66
Mof_C 	C 	0.1459	0.3085	-0	-0.541
Mof_O 	O 	0.0016	0.3386	-0	0.232
Mof_Pd	Pd	0.4496	0.63688	0.5	0.617
Mof_C 	C 	0.274	0.3787	0.5	0.063
Mof_O 	O 	0.1836	0.2883	0.5	-0.056
Mof_C 	C 	0.3633	0.3627	0.5	-0.483
Mof_C 	C 	0.1626	0.3085	0.5	-0.574
Mof_O 	O 	0.337	0.3386	0.5	0.052
Mof_Pd	Pd	0.18728	0.5504	0.5	0.61
Mof_C 	C 	0.1047	0.726	0.5	0.065
Mof_O 	O 	0.1047	0.8164	0.5	-0.08
Mof_C 	C 	0.9994	0.6367	0.5	-0.684
Mof_C 	C 	0.1459	0.8374	0.5	-0.579
Mof_O 	O 	0.0016	0.663	0.5	0.181
Mof_Pd	Pd	0.36312	0.81272	0.5	0.624
Mof_C 	C 	0.6213	0.8953	0.5	0.081
Mof_O 	O 	0.7117	0.8953	0.5	-0.073
Mof_C 	C 	0.6373	0.0006	0.5	-0.29
Mof_C 	C 	0.6915	0.8541	0.5	-0.597
Mof_O 	O 	0.6614	0.9984	0.5	-0.082
Mof_Pd	Pd	0.5504	0.36312	0.5	0.617
Mof_C 	C 	0.726	0.6213	0.5	0.075
Mof_O 	O 	0.8164	0.7117	0.5	-0.083
Mof_C 	C 	0.6367	0.6373	0.5	-0.487
Mof_C 	C 	0.8374	0.6915	0.5	-0.592
Mof_O 	O 	0.663	0.6614	0.5	0.049
Mof_Pd	Pd	0.81272	0.4496	0.5	0.624
Mof_C 	C 	0.8953	0.274	0.5	0.075
Mof_O 	O 	0.8953	0.1836	0.5	-0.061
Mof_C 	C 	0.0006	0.3633	0.5	-0.287
Mof_C 	C 	0.8541	0.1626	0.5	-0.589
Mof_O 	O 	0.9984	0.337	0.5	-0.081
Mof_Pd	Pd	0.63688	0.18728	0.5	0.61
Mof_C 	C 	0.3787	0.1047	0.5	0.059
Mof_O 	O 	0.2883	0.1047	0.5	-0.065
Mof_C 	C 	0.3627	0.9994	0.5	-0.683
Mof_C 	C 	0.3085	0.1459	0.5	-0.57
Mof_O 	O 	0.3386	0.0016	0.5	0.182
Mof_Ca	Ca	0.37002	0.37002	0.25	1.117
Mof_Ca	Ca	0.62998	6.204e-33	0.25	1.08
Mof_Ca	Ca	-3.52964e-17	0.62998	0.25	1.08
Mof_Ca	Ca	0.62998	0.62998	0.25	1.14
Mof_Ca	Ca	0.37002	6.204e-33	0.25	1.069
Mof_Ca	Ca	2.05842e-17	0.37002	0.25	1.069
Mof_Ca	Ca	0.62998	0.62998	0.75	1.136
Mof_Ca	Ca	0.37002	2.4816e-32	0.75	1.067
Mof_Ca	Ca	5.87203e-18	0.37002	0.75	1.067
Mof_Ca	Ca	0.37002	0.37002	0.75	1.113
Mof_Ca	Ca	0.62998	2.4816e-32	0.75	1.078
Mof_Ca	Ca	6.17527e-17	0.62998	0.75	1.078
Mof_O 	O 	0.5	0.5	0.17187	-0.924
Mof_O 	O 	0.5	0	0.17187	-0.995
Mof_O 	O 	-2.42656e-17	0.5	0.17187	-0.995
Mof_O 	O 	0.5	0.5	0.32813	-0.922
Mof_O 	O 	9.5534e-18	0.5	0.32813	-0.993
Mof_O 	O 	0.5	6.204e-33	0.32813	-0.993
Mof_O 	O 	0.5	0.5	0.82813	-0.919
Mof_O 	O 	0.5	0	0.82813	-0.988
Mof_O 	O 	-5.15881e-18	0.5	0.82813	-0.988
Mof_O 	O 	0.5	0.5	0.67187	-0.921
Mof_O 	O 	-1.10375e-17	0.5	0.67187	-0.992
Mof_O 	O 	0.5	1.2408e-32	0.67187	-0.992
_end
