# CIF file generated by openbabel 2.4.1, see http://openbabel.sf.net
data_I
_chemical_name_common 'image0'
_cell_length_a 16.279
_cell_length_b 6.82
_cell_length_c 23.711
_cell_angle_alpha 90
_cell_angle_beta 103.97
_cell_angle_gamma 90
_space_group_name_H-M_alt 'P 1'
_space_group_name_Hall 'P 1'
loop_
    _symmetry_equiv_pos_as_xyz
    x,y,z
loop_
    _atom_site_label
    _atom_site_type_symbol
    _atom_site_fract_x
    _atom_site_fract_y
    _atom_site_fract_z
    _atom_site_occupancy
    Zn1     Zn   0.17448   0.58053   0.72299   1.000
    Zn2     Zn   0.00321   0.32605   0.75473   1.000
    Br1     Br   0.09178   0.12275   0.57236   1.000
    O1      O    0.04550   0.59350   0.33225   1.000
    O2      O    0.04600   0.26020   0.34115   1.000
    O3      O    0.08170   0.58060   0.76425   1.000
    C1      C    0.22120   0.07470   0.72240   1.000
    O4      O    0.12660   0.54670   0.64027   1.000
    O5      O    0.25270   0.56960   0.62820   1.000
    N1      N    0.17320   0.91240   0.72041   1.000
    C2      C    0.58600   0.08830   0.65880   1.000
    C3      C    0.17920   0.54000   0.60970   1.000
    C4      C    0.05500   0.43600   0.36080   1.000
    C5      C    0.08340   0.46140   0.42570   1.000
    N2      N    0.09790   0.98330   0.72527   1.000
    N3      N    0.10170   0.17030   0.73067   1.000
    N4      N    0.70260   0.08480   0.73190   1.000
    C6      C    0.10270   0.33340   0.52360   1.000
    C7      C    0.63500   0.08180   0.75300   1.000
    H1      H    0.63600   0.07900   0.79240   1.000
    C8      C    0.14900   0.65350   0.50690   1.000
    H2      H    0.17450   0.77100   0.52140   1.000
    N5      N    0.17870   0.23410   0.72991   1.000
    C9      C    0.14440   0.50320   0.54580   1.000
    C10     C    0.11820   0.63560   0.44900   1.000
    H3      H    0.12050   0.74170   0.42480   1.000
    C11     C    0.07410   0.30330   0.46440   1.000
    H4      H    0.04950   0.18480   0.44990   1.000
    C12     C    0.66880   0.08520   0.67400   1.000
    H5      H    0.70180   0.08340   0.64700   1.000
    N6      N    0.56610   0.08330   0.71110   1.000
    C13     C    0.31150   0.05800   0.71940   1.000
    C14     C    0.37400   0.08920   0.76876   1.000
    H6      H    0.36010   0.11020   0.80410   1.000
    C15     C    0.45719   0.08940   0.76612   1.000
    H7      H    0.49970   0.11060   0.79960   1.000
    C16     C    0.47780   0.05850   0.71411   1.000
    C17     C    0.41520   0.02720   0.66476   1.000
    H8      H    0.42920   0.00620   0.62950   1.000
    C18     C    0.33210   0.02700   0.66739   1.000
    H9      H    0.28960   0.00580   0.63390   1.000
    C19     C    0.31130   0.08620   0.71949   1.000
    C20     C    0.37480   0.09040   0.76989   1.000
    H10     H    0.36120   0.08950   0.80580   1.000
    C21     C    0.45830   0.09600   0.76705   1.000
    H11     H    0.50110   0.09890   0.80110   1.000
    C22     C    0.47840   0.09740   0.71379   1.000
    C23     C    0.41490   0.09310   0.66338   1.000
    H12     H    0.42850   0.09400   0.62750   1.000
    C24     C    0.33140   0.08750   0.66623   1.000
    H13     H    0.28850   0.08470   0.63220   1.000
    Zn3     Zn   0.82552   0.08053   0.77701   1.000
    Zn4     Zn   0.99679   0.82605   0.74527   1.000
    Br2     Br   0.90822   0.62275   0.92764   1.000
    O6      O    0.95450   0.09350   0.16775   1.000
    O7      O    0.95400   0.76020   0.15885   1.000
    O8      O    0.91830   0.08060   0.73575   1.000
    C25     C    0.77880   0.57470   0.77760   1.000
    O9      O    0.87340   0.04670   0.85973   1.000
    O10     O    0.74730   0.06960   0.87180   1.000
    N7      N    0.82680   0.41240   0.77959   1.000
    C26     C    0.41400   0.58830   0.84120   1.000
    C27     C    0.82080   0.04000   0.89030   1.000
    C28     C    0.94500   0.93600   0.13920   1.000
    C29     C    0.91660   0.96140   0.07430   1.000
    N8      N    0.90210   0.48330   0.77473   1.000
    N9      N    0.89830   0.67030   0.76933   1.000
    N10     N    0.29740   0.58480   0.76810   1.000
    C30     C    0.89730   0.83340   0.97640   1.000
    C31     C    0.36500   0.58180   0.74700   1.000
    H14     H    0.36400   0.57900   0.70760   1.000
    C32     C    0.85100   0.15350   0.99310   1.000
    H15     H    0.82550   0.27100   0.97860   1.000
    N11     N    0.82130   0.73410   0.77009   1.000
    C33     C    0.85560   0.00320   0.95420   1.000
    C34     C    0.88180   0.13560   0.05100   1.000
    H16     H    0.87950   0.24170   0.07520   1.000
    C35     C    0.92590   0.80330   0.03560   1.000
    H17     H    0.95050   0.68480   0.05010   1.000
    C36     C    0.33120   0.58520   0.82600   1.000
    H18     H    0.29820   0.58340   0.85300   1.000
    N12     N    0.43390   0.58330   0.78890   1.000
    C37     C    0.68850   0.55800   0.78060   1.000
    C38     C    0.62600   0.58920   0.73124   1.000
    H19     H    0.63990   0.61020   0.69590   1.000
    C39     C    0.54281   0.58940   0.73388   1.000
    H20     H    0.50030   0.61060   0.70040   1.000
    C40     C    0.52220   0.55850   0.78589   1.000
    C41     C    0.58480   0.52720   0.83524   1.000
    H21     H    0.57080   0.50620   0.87050   1.000
    C42     C    0.66790   0.52700   0.83261   1.000
    H22     H    0.71040   0.50580   0.86610   1.000
    C43     C    0.68870   0.58620   0.78051   1.000
    C44     C    0.62520   0.59040   0.73011   1.000
    H23     H    0.63880   0.58950   0.69420   1.000
    C45     C    0.54170   0.59600   0.73295   1.000
    H24     H    0.49890   0.59890   0.69890   1.000
    C46     C    0.52160   0.59740   0.78621   1.000
    C47     C    0.58510   0.59310   0.83662   1.000
    H25     H    0.57150   0.59400   0.87250   1.000
    C48     C    0.66860   0.58750   0.83377   1.000
    H26     H    0.71150   0.58470   0.86780   1.000
    Zn5     Zn   0.82552   0.41947   0.27701   1.000
    Zn6     Zn   0.99679   0.67395   0.24527   1.000
    Br3     Br   0.90822   0.87725   0.42764   1.000
    O11     O    0.95450   0.40650   0.66775   1.000
    O12     O    0.95400   0.73980   0.65885   1.000
    O13     O    0.91830   0.41940   0.23575   1.000
    C49     C    0.77880   0.92530   0.27760   1.000
    O14     O    0.87340   0.45330   0.35973   1.000
    O15     O    0.74730   0.43040   0.37180   1.000
    N13     N    0.82680   0.08760   0.27959   1.000
    C50     C    0.41400   0.91170   0.34120   1.000
    C51     C    0.82080   0.46000   0.39030   1.000
    C52     C    0.94500   0.56400   0.63920   1.000
    C53     C    0.91660   0.53860   0.57430   1.000
    N14     N    0.90210   0.01670   0.27473   1.000
    N15     N    0.89830   0.82970   0.26933   1.000
    N16     N    0.29740   0.91520   0.26810   1.000
    C54     C    0.89730   0.66660   0.47640   1.000
    C55     C    0.36500   0.91820   0.24700   1.000
    H27     H    0.36400   0.92100   0.20760   1.000
    C56     C    0.85100   0.34650   0.49310   1.000
    H28     H    0.82550   0.22900   0.47860   1.000
    N17     N    0.82130   0.76590   0.27009   1.000
    C57     C    0.85560   0.49680   0.45420   1.000
    C58     C    0.88180   0.36440   0.55100   1.000
    H29     H    0.87950   0.25830   0.57520   1.000
    C59     C    0.92590   0.69670   0.53560   1.000
    H30     H    0.95050   0.81520   0.55010   1.000
    C60     C    0.33120   0.91480   0.32600   1.000
    H31     H    0.29820   0.91660   0.35300   1.000
    N18     N    0.43390   0.91670   0.28890   1.000
    C61     C    0.68850   0.94200   0.28060   1.000
    C62     C    0.62600   0.91080   0.23124   1.000
    H32     H    0.63990   0.88980   0.19590   1.000
    C63     C    0.54281   0.91060   0.23388   1.000
    H33     H    0.50030   0.88940   0.20040   1.000
    C64     C    0.52220   0.94150   0.28589   1.000
    C65     C    0.58480   0.97280   0.33524   1.000
    H34     H    0.57080   0.99380   0.37050   1.000
    C66     C    0.66790   0.97300   0.33261   1.000
    H35     H    0.71040   0.99420   0.36610   1.000
    C67     C    0.68870   0.91380   0.28051   1.000
    C68     C    0.62520   0.90960   0.23011   1.000
    H36     H    0.63880   0.91050   0.19420   1.000
    C69     C    0.54170   0.90400   0.23295   1.000
    H37     H    0.49890   0.90110   0.19890   1.000
    C70     C    0.52160   0.90260   0.28621   1.000
    C71     C    0.58510   0.90690   0.33662   1.000
    H38     H    0.57150   0.90600   0.37250   1.000
    C72     C    0.66860   0.91250   0.33377   1.000
    H39     H    0.71150   0.91530   0.36780   1.000
    Zn7     Zn   0.17448   0.91947   0.22299   1.000
    Zn8     Zn   0.00321   0.17395   0.25473   1.000
    Br4     Br   0.09178   0.37725   0.07236   1.000
    O16     O    0.04550   0.90650   0.83225   1.000
    O17     O    0.04600   0.23980   0.84115   1.000
    O18     O    0.08170   0.91940   0.26425   1.000
    C73     C    0.22120   0.42530   0.22240   1.000
    O19     O    0.12660   0.95330   0.14027   1.000
    O20     O    0.25270   0.93040   0.12820   1.000
    N19     N    0.17320   0.58760   0.22041   1.000
    C74     C    0.58600   0.41170   0.15880   1.000
    C75     C    0.17920   0.96000   0.10970   1.000
    C76     C    0.05500   0.06400   0.86080   1.000
    C77     C    0.08340   0.03860   0.92570   1.000
    N20     N    0.09790   0.51670   0.22527   1.000
    N21     N    0.10170   0.32970   0.23067   1.000
    N22     N    0.70260   0.41520   0.23190   1.000
    C78     C    0.10270   0.16660   0.02360   1.000
    C79     C    0.63500   0.41820   0.25300   1.000
    H40     H    0.63600   0.42100   0.29240   1.000
    C80     C    0.14900   0.84650   0.00690   1.000
    H41     H    0.17450   0.72900   0.02140   1.000
    N23     N    0.17870   0.26590   0.22991   1.000
    C81     C    0.14440   0.99680   0.04580   1.000
    C82     C    0.11820   0.86440   0.94900   1.000
    H42     H    0.12050   0.75830   0.92480   1.000
    C83     C    0.07410   0.19670   0.96440   1.000
    H43     H    0.04950   0.31520   0.94990   1.000
    C84     C    0.66880   0.41480   0.17400   1.000
    H44     H    0.70180   0.41660   0.14700   1.000
    N24     N    0.56610   0.41670   0.21110   1.000
    C85     C    0.31150   0.44200   0.21940   1.000
    C86     C    0.37400   0.41080   0.26876   1.000
    H45     H    0.36010   0.38980   0.30410   1.000
    C87     C    0.45719   0.41060   0.26612   1.000
    H46     H    0.49970   0.38940   0.29960   1.000
    C88     C    0.47780   0.44150   0.21411   1.000
    C89     C    0.41520   0.47280   0.16476   1.000
    H47     H    0.42920   0.49380   0.12950   1.000
    C90     C    0.33210   0.47300   0.16739   1.000
    H48     H    0.28960   0.49420   0.13390   1.000
    C91     C    0.31130   0.41380   0.21949   1.000
    C92     C    0.37480   0.40960   0.26989   1.000
    H49     H    0.36120   0.41050   0.30580   1.000
    C93     C    0.45830   0.40400   0.26705   1.000
    H50     H    0.50110   0.40110   0.30110   1.000
    C94     C    0.47840   0.40260   0.21379   1.000
    C95     C    0.41490   0.40690   0.16338   1.000
    H51     H    0.42850   0.40600   0.12750   1.000
    C96     C    0.33140   0.41250   0.16623   1.000
    H52     H    0.28850   0.41530   0.13220   1.000
