# CIF file generated by openbabel 2.4.1, see http://openbabel.sf.net
data_I
_chemical_name_common 'image0'
_cell_length_a 14.9235
_cell_length_b 14.9235
_cell_length_c 19.1457
_cell_angle_alpha 90
_cell_angle_beta 90
_cell_angle_gamma 90
_space_group_name_H-M_alt 'P 1'
_space_group_name_Hall 'P 1'
loop_
    _symmetry_equiv_pos_as_xyz
    x,y,z
loop_
    _atom_site_label
    _atom_site_type_symbol
    _atom_site_fract_x
    _atom_site_fract_y
    _atom_site_fract_z
    _atom_site_occupancy
    O1      O    0.21519   0.12061   0.29458   1.000
    O2      O    0.18166   0.13409   0.18096   1.000
    C1      C    0.30580   0.17430   0.02870   1.000
    H1      H    0.36800   0.18070   0.04590   1.000
    H2      H    0.28160   0.11680   0.04630   1.000
    C2      C    0.30550   0.17390   0.94900   1.000
    H3      H    0.28080   0.11630   0.93200   1.000
    H4      H    0.36770   0.17940   0.93160   1.000
    C3      C    0.33500   0.21300   0.94770   1.000
    H5      H    0.34290   0.15110   0.93030   1.000
    H6      H    0.24960   0.11430   0.93040   1.000
    C4      C    0.28750   0.33560   0.02720   1.000
    H7      H    0.24870   0.11340   0.04430   1.000
    H8      H    0.34350   0.15040   0.04410   1.000
    C5      C    0.15720   0.23880   0.02850   1.000
    H9      H    0.31820   0.13190   0.04620   1.000
    H10     H    0.38080   0.21150   0.04560   1.000
    C6      C    0.26200   0.15670   0.94880   1.000
    H11     H    0.38210   0.21310   0.93150   1.000
    H12     H    0.31950   0.13180   0.93200   1.000
    C7      C    0.17580   0.09650   0.23948   1.000
    C8      C    0.11330   0.01800   0.24459   1.000
    C9      C    0.07730   0.97970   0.18435   1.000
    H13     H    0.09700   0.99890   0.13960   1.000
    C10     C    0.08620   0.98720   0.30993   1.000
    H14     H    0.11330   0.01080   0.35090   1.000
    O3      O    0.28481   0.37939   0.29458   1.000
    O4      O    0.31834   0.36591   0.18096   1.000
    C11     C    0.19420   0.32570   0.02870   1.000
    H15     H    0.13200   0.31930   0.04590   1.000
    H16     H    0.21840   0.38320   0.04630   1.000
    C12     C    0.19450   0.32610   0.94900   1.000
    H17     H    0.21920   0.38370   0.93200   1.000
    H18     H    0.13230   0.32060   0.93160   1.000
    C13     C    0.16500   0.28700   0.94770   1.000
    H19     H    0.15710   0.34890   0.93030   1.000
    H20     H    0.25040   0.38570   0.93040   1.000
    C14     C    0.21250   0.16440   0.02720   1.000
    H21     H    0.25130   0.38660   0.04430   1.000
    H22     H    0.15650   0.34960   0.04410   1.000
    C15     C    0.34280   0.26120   0.02850   1.000
    H23     H    0.18180   0.36810   0.04620   1.000
    H24     H    0.11920   0.28850   0.04560   1.000
    C16     C    0.23800   0.34330   0.94880   1.000
    H25     H    0.11790   0.28690   0.93150   1.000
    H26     H    0.18050   0.36820   0.93200   1.000
    C17     C    0.32420   0.40350   0.23948   1.000
    C18     C    0.38670   0.48200   0.24459   1.000
    C19     C    0.42270   0.52030   0.18435   1.000
    H27     H    0.40300   0.50110   0.13960   1.000
    C20     C    0.41380   0.51280   0.30993   1.000
    H28     H    0.38670   0.48920   0.35090   1.000
    O5      O    0.37939   0.21519   0.29458   1.000
    O6      O    0.36591   0.18166   0.18096   1.000
    C21     C    0.32570   0.30580   0.02870   1.000
    H29     H    0.31930   0.36800   0.04590   1.000
    H30     H    0.38320   0.28160   0.04630   1.000
    C22     C    0.32610   0.30550   0.94900   1.000
    H31     H    0.38370   0.28080   0.93200   1.000
    H32     H    0.32060   0.36770   0.93160   1.000
    C23     C    0.28700   0.33500   0.94770   1.000
    H33     H    0.34890   0.34290   0.93030   1.000
    H34     H    0.38570   0.24960   0.93040   1.000
    C24     C    0.16440   0.28750   0.02720   1.000
    H35     H    0.38660   0.24870   0.04430   1.000
    H36     H    0.34960   0.34350   0.04410   1.000
    C25     C    0.26120   0.15720   0.02850   1.000
    H37     H    0.36810   0.31820   0.04620   1.000
    H38     H    0.28850   0.38080   0.04560   1.000
    C26     C    0.34330   0.26200   0.94880   1.000
    H39     H    0.28690   0.38210   0.93150   1.000
    H40     H    0.36820   0.31950   0.93200   1.000
    C27     C    0.40350   0.17580   0.23948   1.000
    C28     C    0.48200   0.11330   0.24459   1.000
    C29     C    0.52030   0.07730   0.18435   1.000
    H41     H    0.50110   0.09700   0.13960   1.000
    C30     C    0.51280   0.08620   0.30993   1.000
    H42     H    0.48920   0.11330   0.35090   1.000
    O7      O    0.12061   0.28481   0.29458   1.000
    O8      O    0.13409   0.31834   0.18096   1.000
    C31     C    0.17430   0.19420   0.02870   1.000
    H43     H    0.18070   0.13200   0.04590   1.000
    H44     H    0.11680   0.21840   0.04630   1.000
    C32     C    0.17390   0.19450   0.94900   1.000
    H45     H    0.11630   0.21920   0.93200   1.000
    H46     H    0.17940   0.13230   0.93160   1.000
    C33     C    0.21300   0.16500   0.94770   1.000
    H47     H    0.15110   0.15710   0.93030   1.000
    H48     H    0.11430   0.25040   0.93040   1.000
    C34     C    0.33560   0.21250   0.02720   1.000
    H49     H    0.11340   0.25130   0.04430   1.000
    H50     H    0.15040   0.15650   0.04410   1.000
    C35     C    0.23880   0.34280   0.02850   1.000
    H51     H    0.13190   0.18180   0.04620   1.000
    H52     H    0.21150   0.11920   0.04560   1.000
    C36     C    0.15670   0.23800   0.94880   1.000
    H53     H    0.21310   0.11790   0.93150   1.000
    H54     H    0.13180   0.18050   0.93200   1.000
    C37     C    0.09650   0.32420   0.23948   1.000
    C38     C    0.01800   0.38670   0.24459   1.000
    C39     C    0.97970   0.42270   0.18435   1.000
    H55     H    0.99890   0.40300   0.13960   1.000
    C40     C    0.98720   0.41380   0.30993   1.000
    H56     H    0.01080   0.38670   0.35090   1.000
    O9      O    0.78481   0.62061   0.20542   1.000
    O10     O    0.81834   0.63409   0.31904   1.000
    C41     C    0.69420   0.67430   0.47130   1.000
    H57     H    0.63200   0.68070   0.45410   1.000
    H58     H    0.71840   0.61680   0.45370   1.000
    C42     C    0.69450   0.67390   0.55100   1.000
    H59     H    0.71920   0.61630   0.56800   1.000
    H60     H    0.63230   0.67940   0.56840   1.000
    C43     C    0.66500   0.71300   0.55230   1.000
    H61     H    0.65710   0.65110   0.56970   1.000
    H62     H    0.75040   0.61430   0.56960   1.000
    C44     C    0.71250   0.83560   0.47280   1.000
    H63     H    0.75130   0.61340   0.45570   1.000
    H64     H    0.65650   0.65040   0.45590   1.000
    C45     C    0.84280   0.73880   0.47150   1.000
    H65     H    0.68180   0.63190   0.45380   1.000
    H66     H    0.61920   0.71150   0.45440   1.000
    C46     C    0.73800   0.65670   0.55120   1.000
    H67     H    0.61790   0.71310   0.56850   1.000
    H68     H    0.68050   0.63180   0.56800   1.000
    C47     C    0.82420   0.59650   0.26052   1.000
    C48     C    0.88670   0.51800   0.25541   1.000
    C49     C    0.92270   0.47970   0.31565   1.000
    H69     H    0.90300   0.49890   0.36040   1.000
    C50     C    0.91380   0.48720   0.19007   1.000
    H70     H    0.88670   0.51080   0.14910   1.000
    O11     O    0.71519   0.87939   0.20542   1.000
    O12     O    0.68166   0.86591   0.31904   1.000
    C51     C    0.80580   0.82570   0.47130   1.000
    H71     H    0.86800   0.81930   0.45410   1.000
    H72     H    0.78160   0.88320   0.45370   1.000
    C52     C    0.80550   0.82610   0.55100   1.000
    H73     H    0.78080   0.88370   0.56800   1.000
    H74     H    0.86770   0.82060   0.56840   1.000
    C53     C    0.83500   0.78700   0.55230   1.000
    H75     H    0.84290   0.84890   0.56970   1.000
    H76     H    0.74960   0.88570   0.56960   1.000
    C54     C    0.78750   0.66440   0.47280   1.000
    H77     H    0.74870   0.88660   0.45570   1.000
    H78     H    0.84350   0.84960   0.45590   1.000
    C55     C    0.65720   0.76120   0.47150   1.000
    H79     H    0.81820   0.86810   0.45380   1.000
    H80     H    0.88080   0.78850   0.45440   1.000
    C56     C    0.76200   0.84330   0.55120   1.000
    H81     H    0.88210   0.78690   0.56850   1.000
    H82     H    0.81950   0.86820   0.56800   1.000
    C57     C    0.67580   0.90350   0.26052   1.000
    C58     C    0.61330   0.98200   0.25541   1.000
    C59     C    0.57730   0.02030   0.31565   1.000
    H83     H    0.59700   0.00110   0.36040   1.000
    C60     C    0.58620   0.01280   0.19007   1.000
    H84     H    0.61330   0.98920   0.14910   1.000
    O13     O    0.62061   0.71519   0.20542   1.000
    O14     O    0.63409   0.68166   0.31904   1.000
    C61     C    0.67430   0.80580   0.47130   1.000
    H85     H    0.68070   0.86800   0.45410   1.000
    H86     H    0.61680   0.78160   0.45370   1.000
    C62     C    0.67390   0.80550   0.55100   1.000
    H87     H    0.61630   0.78080   0.56800   1.000
    H88     H    0.67940   0.86770   0.56840   1.000
    C63     C    0.71300   0.83500   0.55230   1.000
    H89     H    0.65110   0.84290   0.56970   1.000
    H90     H    0.61430   0.74960   0.56960   1.000
    C64     C    0.83560   0.78750   0.47280   1.000
    H91     H    0.61340   0.74870   0.45570   1.000
    H92     H    0.65040   0.84350   0.45590   1.000
    C65     C    0.73880   0.65720   0.47150   1.000
    H93     H    0.63190   0.81820   0.45380   1.000
    H94     H    0.71150   0.88080   0.45440   1.000
    C66     C    0.65670   0.76200   0.55120   1.000
    H95     H    0.71310   0.88210   0.56850   1.000
    H96     H    0.63180   0.81950   0.56800   1.000
    C67     C    0.59650   0.67580   0.26052   1.000
    C68     C    0.51800   0.61330   0.25541   1.000
    C69     C    0.47970   0.57730   0.31565   1.000
    H97     H    0.49890   0.59700   0.36040   1.000
    C70     C    0.48720   0.58620   0.19007   1.000
    H98     H    0.51080   0.61330   0.14910   1.000
    O15     O    0.87939   0.78481   0.20542   1.000
    O16     O    0.86591   0.81834   0.31904   1.000
    C71     C    0.82570   0.69420   0.47130   1.000
    H99     H    0.81930   0.63200   0.45410   1.000
    H100    H    0.88320   0.71840   0.45370   1.000
    C72     C    0.82610   0.69450   0.55100   1.000
    H101    H    0.88370   0.71920   0.56800   1.000
    H102    H    0.82060   0.63230   0.56840   1.000
    C73     C    0.78700   0.66500   0.55230   1.000
    H103    H    0.84890   0.65710   0.56970   1.000
    H104    H    0.88570   0.75040   0.56960   1.000
    C74     C    0.66440   0.71250   0.47280   1.000
    H105    H    0.88660   0.75130   0.45570   1.000
    H106    H    0.84960   0.65650   0.45590   1.000
    C75     C    0.76120   0.84280   0.47150   1.000
    H107    H    0.86810   0.68180   0.45380   1.000
    H108    H    0.78850   0.61920   0.45440   1.000
    C76     C    0.84330   0.73800   0.55120   1.000
    H109    H    0.78690   0.61790   0.56850   1.000
    H110    H    0.86820   0.68050   0.56800   1.000
    C77     C    0.90350   0.82420   0.26052   1.000
    C78     C    0.98200   0.88670   0.25541   1.000
    C79     C    0.02030   0.92270   0.31565   1.000
    H111    H    0.00110   0.90300   0.36040   1.000
    C80     C    0.01280   0.91380   0.19007   1.000
    H112    H    0.98920   0.88670   0.14910   1.000
    O17     O    0.78481   0.87939   0.70542   1.000
    O18     O    0.81834   0.86591   0.81904   1.000
    C81     C    0.69420   0.82570   0.97130   1.000
    H113    H    0.63200   0.81930   0.95410   1.000
    H114    H    0.71840   0.88320   0.95370   1.000
    C82     C    0.69450   0.82610   0.05100   1.000
    H115    H    0.71920   0.88370   0.06800   1.000
    H116    H    0.63230   0.82060   0.06840   1.000
    C83     C    0.66500   0.78700   0.05230   1.000
    H117    H    0.65710   0.84890   0.06970   1.000
    H118    H    0.75040   0.88570   0.06960   1.000
    C84     C    0.71250   0.66440   0.97280   1.000
    H119    H    0.75130   0.88660   0.95570   1.000
    H120    H    0.65650   0.84960   0.95590   1.000
    C85     C    0.84280   0.76120   0.97150   1.000
    H121    H    0.68180   0.86810   0.95380   1.000
    H122    H    0.61920   0.78850   0.95440   1.000
    C86     C    0.73800   0.84330   0.05120   1.000
    H123    H    0.61790   0.78690   0.06850   1.000
    H124    H    0.68050   0.86820   0.06800   1.000
    C87     C    0.82420   0.90350   0.76052   1.000
    C88     C    0.88670   0.98200   0.75541   1.000
    C89     C    0.92270   0.02030   0.81565   1.000
    H125    H    0.90300   0.00110   0.86040   1.000
    C90     C    0.91380   0.01280   0.69007   1.000
    H126    H    0.88670   0.98920   0.64910   1.000
    O19     O    0.71519   0.62061   0.70542   1.000
    O20     O    0.68166   0.63409   0.81904   1.000
    C91     C    0.80580   0.67430   0.97130   1.000
    H127    H    0.86800   0.68070   0.95410   1.000
    H128    H    0.78160   0.61680   0.95370   1.000
    C92     C    0.80550   0.67390   0.05100   1.000
    H129    H    0.78080   0.61630   0.06800   1.000
    H130    H    0.86770   0.67940   0.06840   1.000
    C93     C    0.83500   0.71300   0.05230   1.000
    H131    H    0.84290   0.65110   0.06970   1.000
    H132    H    0.74960   0.61430   0.06960   1.000
    C94     C    0.78750   0.83560   0.97280   1.000
    H133    H    0.74870   0.61340   0.95570   1.000
    H134    H    0.84350   0.65040   0.95590   1.000
    C95     C    0.65720   0.73880   0.97150   1.000
    H135    H    0.81820   0.63190   0.95380   1.000
    H136    H    0.88080   0.71150   0.95440   1.000
    C96     C    0.76200   0.65670   0.05120   1.000
    H137    H    0.88210   0.71310   0.06850   1.000
    H138    H    0.81950   0.63180   0.06800   1.000
    C97     C    0.67580   0.59650   0.76052   1.000
    C98     C    0.61330   0.51800   0.75541   1.000
    C99     C    0.57730   0.47970   0.81565   1.000
    H139    H    0.59700   0.49890   0.86040   1.000
    C100    C    0.58620   0.48720   0.69007   1.000
    H140    H    0.61330   0.51080   0.64910   1.000
    O21     O    0.62061   0.78481   0.70542   1.000
    O22     O    0.63409   0.81834   0.81904   1.000
    C101    C    0.67430   0.69420   0.97130   1.000
    H141    H    0.68070   0.63200   0.95410   1.000
    H142    H    0.61680   0.71840   0.95370   1.000
    C102    C    0.67390   0.69450   0.05100   1.000
    H143    H    0.61630   0.71920   0.06800   1.000
    H144    H    0.67940   0.63230   0.06840   1.000
    C103    C    0.71300   0.66500   0.05230   1.000
    H145    H    0.65110   0.65710   0.06970   1.000
    H146    H    0.61430   0.75040   0.06960   1.000
    C104    C    0.83560   0.71250   0.97280   1.000
    H147    H    0.61340   0.75130   0.95570   1.000
    H148    H    0.65040   0.65650   0.95590   1.000
    C105    C    0.73880   0.84280   0.97150   1.000
    H149    H    0.63190   0.68180   0.95380   1.000
    H150    H    0.71150   0.61920   0.95440   1.000
    C106    C    0.65670   0.73800   0.05120   1.000
    H151    H    0.71310   0.61790   0.06850   1.000
    H152    H    0.63180   0.68050   0.06800   1.000
    C107    C    0.59650   0.82420   0.76052   1.000
    C108    C    0.51800   0.88670   0.75541   1.000
    C109    C    0.47970   0.92270   0.81565   1.000
    H153    H    0.49890   0.90300   0.86040   1.000
    C110    C    0.48720   0.91380   0.69007   1.000
    H154    H    0.51080   0.88670   0.64910   1.000
    O23     O    0.87939   0.71519   0.70542   1.000
    O24     O    0.86591   0.68166   0.81904   1.000
    C111    C    0.82570   0.80580   0.97130   1.000
    H155    H    0.81930   0.86800   0.95410   1.000
    H156    H    0.88320   0.78160   0.95370   1.000
    C112    C    0.82610   0.80550   0.05100   1.000
    H157    H    0.88370   0.78080   0.06800   1.000
    H158    H    0.82060   0.86770   0.06840   1.000
    C113    C    0.78700   0.83500   0.05230   1.000
    H159    H    0.84890   0.84290   0.06970   1.000
    H160    H    0.88570   0.74960   0.06960   1.000
    C114    C    0.66440   0.78750   0.97280   1.000
    H161    H    0.88660   0.74870   0.95570   1.000
    H162    H    0.84960   0.84350   0.95590   1.000
    C115    C    0.76120   0.65720   0.97150   1.000
    H163    H    0.86810   0.81820   0.95380   1.000
    H164    H    0.78850   0.88080   0.95440   1.000
    C116    C    0.84330   0.76200   0.05120   1.000
    H165    H    0.78690   0.88210   0.06850   1.000
    H166    H    0.86820   0.81950   0.06800   1.000
    C117    C    0.90350   0.67580   0.76052   1.000
    C118    C    0.98200   0.61330   0.75541   1.000
    C119    C    0.02030   0.57730   0.81565   1.000
    H167    H    0.00110   0.59700   0.86040   1.000
    C120    C    0.01280   0.58620   0.69007   1.000
    H168    H    0.98920   0.61330   0.64910   1.000
    O25     O    0.21519   0.37939   0.79458   1.000
    O26     O    0.18166   0.36591   0.68096   1.000
    C121    C    0.30580   0.32570   0.52870   1.000
    H169    H    0.36800   0.31930   0.54590   1.000
    H170    H    0.28160   0.38320   0.54630   1.000
    C122    C    0.30550   0.32610   0.44900   1.000
    H171    H    0.28080   0.38370   0.43200   1.000
    H172    H    0.36770   0.32060   0.43160   1.000
    C123    C    0.33500   0.28700   0.44770   1.000
    H173    H    0.34290   0.34890   0.43030   1.000
    H174    H    0.24960   0.38570   0.43040   1.000
    C124    C    0.28750   0.16440   0.52720   1.000
    H175    H    0.24870   0.38660   0.54430   1.000
    H176    H    0.34350   0.34960   0.54410   1.000
    C125    C    0.15720   0.26120   0.52850   1.000
    H177    H    0.31820   0.36810   0.54620   1.000
    H178    H    0.38080   0.28850   0.54560   1.000
    C126    C    0.26200   0.34330   0.44880   1.000
    H179    H    0.38210   0.28690   0.43150   1.000
    H180    H    0.31950   0.36820   0.43200   1.000
    C127    C    0.17580   0.40350   0.73948   1.000
    C128    C    0.11330   0.48200   0.74459   1.000
    C129    C    0.07730   0.52030   0.68435   1.000
    H181    H    0.09700   0.50110   0.63960   1.000
    C130    C    0.08620   0.51280   0.80993   1.000
    H182    H    0.11330   0.48920   0.85090   1.000
    O27     O    0.28481   0.12061   0.79458   1.000
    O28     O    0.31834   0.13409   0.68096   1.000
    C131    C    0.19420   0.17430   0.52870   1.000
    H183    H    0.13200   0.18070   0.54590   1.000
    H184    H    0.21840   0.11680   0.54630   1.000
    C132    C    0.19450   0.17390   0.44900   1.000
    H185    H    0.21920   0.11630   0.43200   1.000
    H186    H    0.13230   0.17940   0.43160   1.000
    C133    C    0.16500   0.21300   0.44770   1.000
    H187    H    0.15710   0.15110   0.43030   1.000
    H188    H    0.25040   0.11430   0.43040   1.000
    C134    C    0.21250   0.33560   0.52720   1.000
    H189    H    0.25130   0.11340   0.54430   1.000
    H190    H    0.15650   0.15040   0.54410   1.000
    C135    C    0.34280   0.23880   0.52850   1.000
    H191    H    0.18180   0.13190   0.54620   1.000
    H192    H    0.11920   0.21150   0.54560   1.000
    C136    C    0.23800   0.15670   0.44880   1.000
    H193    H    0.11790   0.21310   0.43150   1.000
    H194    H    0.18050   0.13180   0.43200   1.000
    C137    C    0.32420   0.09650   0.73948   1.000
    C138    C    0.38670   0.01800   0.74459   1.000
    C139    C    0.42270   0.97970   0.68435   1.000
    H195    H    0.40300   0.99890   0.63960   1.000
    C140    C    0.41380   0.98720   0.80993   1.000
    H196    H    0.38670   0.01080   0.85090   1.000
    O29     O    0.37939   0.28481   0.79458   1.000
    O30     O    0.36591   0.31834   0.68096   1.000
    C141    C    0.32570   0.19420   0.52870   1.000
    H197    H    0.31930   0.13200   0.54590   1.000
    H198    H    0.38320   0.21840   0.54630   1.000
    C142    C    0.32610   0.19450   0.44900   1.000
    H199    H    0.38370   0.21920   0.43200   1.000
    H200    H    0.32060   0.13230   0.43160   1.000
    C143    C    0.28700   0.16500   0.44770   1.000
    H201    H    0.34890   0.15710   0.43030   1.000
    H202    H    0.38570   0.25040   0.43040   1.000
    C144    C    0.16440   0.21250   0.52720   1.000
    H203    H    0.38660   0.25130   0.54430   1.000
    H204    H    0.34960   0.15650   0.54410   1.000
    C145    C    0.26120   0.34280   0.52850   1.000
    H205    H    0.36810   0.18180   0.54620   1.000
    H206    H    0.28850   0.11920   0.54560   1.000
    C146    C    0.34330   0.23800   0.44880   1.000
    H207    H    0.28690   0.11790   0.43150   1.000
    H208    H    0.36820   0.18050   0.43200   1.000
    C147    C    0.40350   0.32420   0.73948   1.000
    C148    C    0.48200   0.38670   0.74459   1.000
    C149    C    0.52030   0.42270   0.68435   1.000
    H209    H    0.50110   0.40300   0.63960   1.000
    C150    C    0.51280   0.41380   0.80993   1.000
    H210    H    0.48920   0.38670   0.85090   1.000
    O31     O    0.12061   0.21519   0.79458   1.000
    O32     O    0.13409   0.18166   0.68096   1.000
    C151    C    0.17430   0.30580   0.52870   1.000
    H211    H    0.18070   0.36800   0.54590   1.000
    H212    H    0.11680   0.28160   0.54630   1.000
    C152    C    0.17390   0.30550   0.44900   1.000
    H213    H    0.11630   0.28080   0.43200   1.000
    H214    H    0.17940   0.36770   0.43160   1.000
    C153    C    0.21300   0.33500   0.44770   1.000
    H215    H    0.15110   0.34290   0.43030   1.000
    H216    H    0.11430   0.24960   0.43040   1.000
    C154    C    0.33560   0.28750   0.52720   1.000
    H217    H    0.11340   0.24870   0.54430   1.000
    H218    H    0.15040   0.34350   0.54410   1.000
    C155    C    0.23880   0.15720   0.52850   1.000
    H219    H    0.13190   0.31820   0.54620   1.000
    H220    H    0.21150   0.38080   0.54560   1.000
    C156    C    0.15670   0.26200   0.44880   1.000
    H221    H    0.21310   0.38210   0.43150   1.000
    H222    H    0.13180   0.31950   0.43200   1.000
    C157    C    0.09650   0.17580   0.73948   1.000
    C158    C    0.01800   0.11330   0.74459   1.000
    C159    C    0.97970   0.07730   0.68435   1.000
    H223    H    0.99890   0.09700   0.63960   1.000
    C160    C    0.98720   0.08620   0.80993   1.000
    H224    H    0.01080   0.11330   0.85090   1.000
    Cu1     Cu   0.25000   0.25000   0.16183   1.000
    Cu2     Cu   0.25000   0.25000   0.31476   1.000
    N1      N    0.25000   0.25000   0.05540   1.000
    N2      N    0.25000   0.25000   0.92070   1.000
    Cu3     Cu   0.75000   0.75000   0.33817   1.000
    Cu4     Cu   0.75000   0.75000   0.18524   1.000
    N3      N    0.75000   0.75000   0.44460   1.000
    N4      N    0.75000   0.75000   0.57930   1.000
    Cu5     Cu   0.75000   0.75000   0.83817   1.000
    Cu6     Cu   0.75000   0.75000   0.68524   1.000
    N5      N    0.75000   0.75000   0.94460   1.000
    N6      N    0.75000   0.75000   0.07930   1.000
    Cu7     Cu   0.25000   0.25000   0.66183   1.000
    Cu8     Cu   0.25000   0.25000   0.81476   1.000
    N7      N    0.25000   0.25000   0.55540   1.000
    N8      N    0.25000   0.25000   0.42070   1.000
