# CIF file generated by openbabel 2.4.1, see http://openbabel.sf.net
data_I
_chemical_name_common 'image0'
_cell_length_a 19.6891
_cell_length_b 13.7933
_cell_length_c 26.276
_cell_angle_alpha 90
_cell_angle_beta 96.242
_cell_angle_gamma 90
_space_group_name_H-M_alt 'P 1'
_space_group_name_Hall 'P 1'
loop_
    _symmetry_equiv_pos_as_xyz
    x,y,z
loop_
    _atom_site_label
    _atom_site_type_symbol
    _atom_site_fract_x
    _atom_site_fract_y
    _atom_site_fract_z
    _atom_site_occupancy
    Zn1     Zn   0.07679   0.51281   0.13549   1.000
    Zn2     Zn   0.24626   0.50210   0.14640   1.000
    Zn3     Zn   0.42020   0.48612   0.15756   1.000
    O1      O    0.07610   0.66740   0.16310   1.000
    O2      O    0.16110   0.60190   0.13276   1.000
    O3      O    0.42540   0.33360   0.16150   1.000
    O4      O    0.32729   0.40020   0.15810   1.000
    O5      O    0.08448   0.43530   0.07431   1.000
    O6      O    0.19594   0.41050   0.09374   1.000
    O7      O    0.20536   0.05870   0.70811   1.000
    O8      O    0.09200   0.05680   0.69949   1.000
    O9      O    0.29780   0.59320   0.19905   1.000
    O10     O    0.40752   0.55930   0.21896   1.000
    O11     O    0.40179   0.95010   0.59169   1.000
    O12     O    0.28869   0.93390   0.58645   1.000
    C1      C    0.17170   0.76830   0.15750   1.000
    C2      C    0.23230   0.78120   0.13800   1.000
    H1      H    0.25190   0.72970   0.12190   1.000
    C3      C    0.26520   0.87010   0.14170   1.000
    H2      H    0.30720   0.87710   0.12890   1.000
    C4      C    0.23660   0.94810   0.16410   1.000
    C5      C    0.17650   0.93380   0.18420   1.000
    H3      H    0.15690   0.98510   0.20020   1.000
    C6      C    0.14420   0.84520   0.18140   1.000
    H4      H    0.10350   0.83740   0.19570   1.000
    C7      C    0.13430   0.67480   0.15110   1.000
    C8      C    0.32970   0.22840   0.16230   1.000
    C9      C    0.36930   0.14590   0.16240   1.000
    H5      H    0.41630   0.15100   0.16180   1.000
    C10     C    0.33900   0.05540   0.16330   1.000
    H6      H    0.36610   0.00020   0.16320   1.000
    C11     C    0.26980   0.04520   0.16450   1.000
    C12     C    0.23230   0.12920   0.16620   1.000
    H7      H    0.18550   0.12480   0.16810   1.000
    C13     C    0.26200   0.21940   0.16520   1.000
    H8      H    0.23520   0.27460   0.16650   1.000
    C14     C    0.36210   0.32560   0.16030   1.000
    C15     C    0.14260   0.34490   0.01720   1.000
    C16     C    0.20340   0.32250   0.99830   1.000
    H9      H    0.24440   0.33890   0.01740   1.000
    C17     C    0.20480   0.27730   0.95270   1.000
    H10     H    0.24680   0.26420   0.94100   1.000
    C18     C    0.14550   0.24990   0.92290   1.000
    C19     C    0.08400   0.27160   0.94200   1.000
    H11     H    0.04300   0.25440   0.92320   1.000
    C20     C    0.08300   0.31780   0.98790   1.000
    H12     H    0.04120   0.33140   0.99970   1.000
    C21     C    0.14140   0.40050   0.06583   1.000
    C22     C    0.14830   0.11920   0.77500   1.000
    C23     C    0.20680   0.13870   0.80500   1.000
    H13     H    0.24860   0.12420   0.79340   1.000
    C24     C    0.20520   0.18050   0.85310   1.000
    H14     H    0.24640   0.19380   0.87270   1.000
    C25     C    0.14650   0.20250   0.87270   1.000
    C26     C    0.08840   0.18600   0.84110   1.000
    H15     H    0.04660   0.20290   0.85210   1.000
    C27     C    0.08900   0.14480   0.79300   1.000
    H16     H    0.04790   0.13470   0.77260   1.000
    C28     C    0.14970   0.07510   0.72357   1.000
    C29     C    0.35020   0.64420   0.27870   1.000
    C30     C    0.40940   0.65690   0.31100   1.000
    H17     H    0.45070   0.63470   0.30120   1.000
    C31     C    0.40830   0.70180   0.35760   1.000
    H18     H    0.44920   0.71210   0.37810   1.000
    C32     C    0.34860   0.73180   0.37460   1.000
    C33     C    0.29040   0.72460   0.34030   1.000
    H19     H    0.24940   0.74960   0.34910   1.000
    C34     C    0.29210   0.68080   0.29300   1.000
    H20     H    0.25220   0.67670   0.27070   1.000
    C35     C    0.35170   0.59470   0.22850   1.000
    C36     C    0.34610   0.87180   0.51990   1.000
    C37     C    0.40510   0.86500   0.49690   1.000
    H21     H    0.44530   0.89090   0.51310   1.000
    C38     C    0.40550   0.82040   0.45010   1.000
    H22     H    0.44600   0.81800   0.43490   1.000
    C39     C    0.34730   0.77910   0.42510   1.000
    C40     C    0.28870   0.78770   0.44850   1.000
    H23     H    0.24840   0.76150   0.43250   1.000
    C41     C    0.28720   0.83320   0.49470   1.000
    H24     H    0.24630   0.83830   0.50910   1.000
    C42     C    0.34450   0.92370   0.57020   1.000
    N1      N    0.97230   0.51390   0.12942   1.000
    N2      N    0.76000   0.50590   0.12580   1.000
    N3      N    0.73920   0.50620   0.16700   1.000
    C43     C    0.94330   0.54460   0.17000   1.000
    H25     H    0.97120   0.56810   0.19810   1.000
    C44     C    0.87340   0.54300   0.17200   1.000
    H26     H    0.85430   0.56440   0.20090   1.000
    C45     C    0.83260   0.50840   0.12940   1.000
    C46     C    0.86270   0.47910   0.08760   1.000
    H27     H    0.83590   0.45840   0.05830   1.000
    C47     C    0.93260   0.48040   0.08910   1.000
    H28     H    0.95270   0.45720   0.06100   1.000
    C48     C    0.56500   0.44830   0.19940   1.000
    H29     H    0.54480   0.41340   0.22400   1.000
    C49     C    0.63570   0.45180   0.20090   1.000
    H30     H    0.66290   0.41930   0.22660   1.000
    C50     C    0.66580   0.50400   0.16400   1.000
    C51     C    0.62520   0.55260   0.12560   1.000
    H31     H    0.64530   0.58750   0.10100   1.000
    C52     C    0.55440   0.54910   0.12410   1.000
    H32     H    0.52730   0.58170   0.09840   1.000
    N4      N    0.52430   0.49700   0.16100   1.000
    C53     C    0.56590   0.49990   0.20610   1.000
    H33     H    0.54670   0.49860   0.23680   1.000
    C54     C    0.63650   0.50380   0.20620   1.000
    H34     H    0.66450   0.50500   0.23710   1.000
    C55     C    0.66530   0.50570   0.16020   1.000
    C56     C    0.62340   0.50380   0.11400   1.000
    H35     H    0.64270   0.50510   0.08320   1.000
    C57     C    0.55290   0.50000   0.11390   1.000
    H36     H    0.52490   0.49870   0.08300   1.000
    N5      N    0.52410   0.49810   0.15990   1.000
    Zn4     Zn   0.07679   0.98719   0.63549   1.000
    Zn5     Zn   0.24626   0.99790   0.64640   1.000
    Zn6     Zn   0.42020   0.01388   0.65756   1.000
    O13     O    0.07610   0.83260   0.66310   1.000
    O14     O    0.16110   0.89810   0.63276   1.000
    O15     O    0.42540   0.16640   0.66150   1.000
    O16     O    0.32729   0.09980   0.65810   1.000
    O17     O    0.08448   0.06470   0.57431   1.000
    O18     O    0.19594   0.08950   0.59374   1.000
    O19     O    0.20536   0.44130   0.20811   1.000
    O20     O    0.09200   0.44320   0.19949   1.000
    O21     O    0.29780   0.90680   0.69905   1.000
    O22     O    0.40752   0.94070   0.71896   1.000
    O23     O    0.40179   0.54990   0.09169   1.000
    O24     O    0.28869   0.56610   0.08645   1.000
    C58     C    0.17170   0.73170   0.65750   1.000
    C59     C    0.23230   0.71880   0.63800   1.000
    H37     H    0.25190   0.77030   0.62190   1.000
    C60     C    0.26520   0.62990   0.64170   1.000
    H38     H    0.30720   0.62290   0.62890   1.000
    C61     C    0.23660   0.55190   0.66410   1.000
    C62     C    0.17650   0.56620   0.68420   1.000
    H39     H    0.15690   0.51490   0.70020   1.000
    C63     C    0.14420   0.65480   0.68140   1.000
    H40     H    0.10350   0.66260   0.69570   1.000
    C64     C    0.13430   0.82520   0.65110   1.000
    C65     C    0.32970   0.27160   0.66230   1.000
    C66     C    0.36930   0.35410   0.66240   1.000
    H41     H    0.41630   0.34900   0.66180   1.000
    C67     C    0.33900   0.44460   0.66330   1.000
    H42     H    0.36610   0.49980   0.66320   1.000
    C68     C    0.26980   0.45480   0.66450   1.000
    C69     C    0.23230   0.37080   0.66620   1.000
    H43     H    0.18550   0.37520   0.66810   1.000
    C70     C    0.26200   0.28060   0.66520   1.000
    H44     H    0.23520   0.22540   0.66650   1.000
    C71     C    0.36210   0.17440   0.66030   1.000
    C72     C    0.14260   0.15510   0.51720   1.000
    C73     C    0.20340   0.17750   0.49830   1.000
    H45     H    0.24440   0.16110   0.51740   1.000
    C74     C    0.20480   0.22270   0.45270   1.000
    H46     H    0.24680   0.23580   0.44100   1.000
    C75     C    0.14550   0.25010   0.42290   1.000
    C76     C    0.08400   0.22840   0.44200   1.000
    H47     H    0.04300   0.24560   0.42320   1.000
    C77     C    0.08300   0.18220   0.48790   1.000
    H48     H    0.04120   0.16860   0.49970   1.000
    C78     C    0.14140   0.09950   0.56583   1.000
    C79     C    0.14830   0.38080   0.27500   1.000
    C80     C    0.20680   0.36130   0.30500   1.000
    H49     H    0.24860   0.37580   0.29340   1.000
    C81     C    0.20520   0.31950   0.35310   1.000
    H50     H    0.24640   0.30620   0.37270   1.000
    C82     C    0.14650   0.29750   0.37270   1.000
    C83     C    0.08840   0.31400   0.34110   1.000
    H51     H    0.04660   0.29710   0.35210   1.000
    C84     C    0.08900   0.35520   0.29300   1.000
    H52     H    0.04790   0.36530   0.27260   1.000
    C85     C    0.14970   0.42490   0.22357   1.000
    C86     C    0.35020   0.85580   0.77870   1.000
    C87     C    0.40940   0.84310   0.81100   1.000
    H53     H    0.45070   0.86530   0.80120   1.000
    C88     C    0.40830   0.79820   0.85760   1.000
    H54     H    0.44920   0.78790   0.87810   1.000
    C89     C    0.34860   0.76820   0.87460   1.000
    C90     C    0.29040   0.77540   0.84030   1.000
    H55     H    0.24940   0.75040   0.84910   1.000
    C91     C    0.29210   0.81920   0.79300   1.000
    H56     H    0.25220   0.82330   0.77070   1.000
    C92     C    0.35170   0.90530   0.72850   1.000
    C93     C    0.34610   0.62820   0.01990   1.000
    C94     C    0.40510   0.63500   0.99690   1.000
    H57     H    0.44530   0.60910   0.01310   1.000
    C95     C    0.40550   0.67960   0.95010   1.000
    H58     H    0.44600   0.68200   0.93490   1.000
    C96     C    0.34730   0.72090   0.92510   1.000
    C97     C    0.28870   0.71230   0.94850   1.000
    H59     H    0.24840   0.73850   0.93250   1.000
    C98     C    0.28720   0.66680   0.99470   1.000
    H60     H    0.24630   0.66170   0.00910   1.000
    C99     C    0.34450   0.57630   0.07020   1.000
    N6      N    0.97230   0.98610   0.62942   1.000
    N7      N    0.76000   0.99410   0.62580   1.000
    N8      N    0.73920   0.99380   0.66700   1.000
    C100    C    0.94330   0.95540   0.67000   1.000
    H61     H    0.97120   0.93190   0.69810   1.000
    C101    C    0.87340   0.95700   0.67200   1.000
    H62     H    0.85430   0.93560   0.70090   1.000
    C102    C    0.83260   0.99160   0.62940   1.000
    C103    C    0.86270   0.02090   0.58760   1.000
    H63     H    0.83590   0.04160   0.55830   1.000
    C104    C    0.93260   0.01960   0.58910   1.000
    H64     H    0.95270   0.04280   0.56100   1.000
    C105    C    0.56500   0.05170   0.69940   1.000
    H65     H    0.54480   0.08660   0.72400   1.000
    C106    C    0.63570   0.04820   0.70090   1.000
    H66     H    0.66290   0.08070   0.72660   1.000
    C107    C    0.66580   0.99600   0.66400   1.000
    C108    C    0.62520   0.94740   0.62560   1.000
    H67     H    0.64530   0.91250   0.60100   1.000
    C109    C    0.55440   0.95090   0.62410   1.000
    H68     H    0.52730   0.91830   0.59840   1.000
    N9      N    0.52430   0.00300   0.66100   1.000
    C110    C    0.56590   0.00010   0.70610   1.000
    H69     H    0.54670   0.00140   0.73680   1.000
    C111    C    0.63650   0.99620   0.70620   1.000
    H70     H    0.66450   0.99500   0.73710   1.000
    C112    C    0.66530   0.99430   0.66020   1.000
    C113    C    0.62340   0.99620   0.61400   1.000
    H71     H    0.64270   0.99490   0.58320   1.000
    C114    C    0.55290   0.00000   0.61390   1.000
    H72     H    0.52490   0.00130   0.58300   1.000
    N10     N    0.52410   0.00190   0.65990   1.000
    Zn7     Zn   0.92321   0.01281   0.36451   1.000
    Zn8     Zn   0.75374   0.00210   0.35360   1.000
    Zn9     Zn   0.57980   0.98612   0.34244   1.000
    O25     O    0.92390   0.16740   0.33690   1.000
    O26     O    0.83890   0.10190   0.36724   1.000
    O27     O    0.57460   0.83360   0.33850   1.000
    O28     O    0.67271   0.90020   0.34190   1.000
    O29     O    0.91552   0.93530   0.42569   1.000
    O30     O    0.80406   0.91050   0.40626   1.000
    O31     O    0.79464   0.55870   0.79189   1.000
    O32     O    0.90800   0.55680   0.80051   1.000
    O33     O    0.70220   0.09320   0.30095   1.000
    O34     O    0.59248   0.05930   0.28104   1.000
    O35     O    0.59821   0.45010   0.90831   1.000
    O36     O    0.71131   0.43390   0.91355   1.000
    C115    C    0.82830   0.26830   0.34250   1.000
    C116    C    0.76770   0.28120   0.36200   1.000
    H73     H    0.74810   0.22970   0.37810   1.000
    C117    C    0.73480   0.37010   0.35830   1.000
    H74     H    0.69280   0.37710   0.37110   1.000
    C118    C    0.76340   0.44810   0.33590   1.000
    C119    C    0.82350   0.43380   0.31580   1.000
    H75     H    0.84310   0.48510   0.29980   1.000
    C120    C    0.85580   0.34520   0.31860   1.000
    H76     H    0.89650   0.33740   0.30430   1.000
    C121    C    0.86570   0.17480   0.34890   1.000
    C122    C    0.67030   0.72840   0.33770   1.000
    C123    C    0.63070   0.64590   0.33760   1.000
    H77     H    0.58370   0.65100   0.33820   1.000
    C124    C    0.66100   0.55540   0.33670   1.000
    H78     H    0.63390   0.50020   0.33680   1.000
    C125    C    0.73020   0.54520   0.33550   1.000
    C126    C    0.76770   0.62920   0.33380   1.000
    H79     H    0.81450   0.62480   0.33190   1.000
    C127    C    0.73800   0.71940   0.33480   1.000
    H80     H    0.76480   0.77460   0.33350   1.000
    C128    C    0.63790   0.82560   0.33970   1.000
    C129    C    0.85740   0.84490   0.48280   1.000
    C130    C    0.79660   0.82250   0.50170   1.000
    H81     H    0.75560   0.83890   0.48260   1.000
    C131    C    0.79520   0.77730   0.54730   1.000
    H82     H    0.75320   0.76420   0.55900   1.000
    C132    C    0.85450   0.74990   0.57710   1.000
    C133    C    0.91600   0.77160   0.55800   1.000
    H83     H    0.95700   0.75440   0.57680   1.000
    C134    C    0.91700   0.81780   0.51210   1.000
    H84     H    0.95880   0.83140   0.50030   1.000
    C135    C    0.85860   0.90050   0.43417   1.000
    C136    C    0.85170   0.61920   0.72500   1.000
    C137    C    0.79320   0.63870   0.69500   1.000
    H85     H    0.75140   0.62420   0.70660   1.000
    C138    C    0.79480   0.68050   0.64690   1.000
    H86     H    0.75360   0.69380   0.62730   1.000
    C139    C    0.85350   0.70250   0.62730   1.000
    C140    C    0.91160   0.68600   0.65890   1.000
    H87     H    0.95340   0.70290   0.64790   1.000
    C141    C    0.91100   0.64480   0.70700   1.000
    H88     H    0.95210   0.63470   0.72740   1.000
    C142    C    0.85030   0.57510   0.77643   1.000
    C143    C    0.64980   0.14420   0.22130   1.000
    C144    C    0.59060   0.15690   0.18900   1.000
    H89     H    0.54930   0.13470   0.19880   1.000
    C145    C    0.59170   0.20180   0.14240   1.000
    H90     H    0.55080   0.21210   0.12190   1.000
    C146    C    0.65140   0.23180   0.12540   1.000
    C147    C    0.70960   0.22460   0.15970   1.000
    H91     H    0.75060   0.24960   0.15090   1.000
    C148    C    0.70790   0.18080   0.20700   1.000
    H92     H    0.74780   0.17670   0.22930   1.000
    C149    C    0.64830   0.09470   0.27150   1.000
    C150    C    0.65390   0.37180   0.98010   1.000
    C151    C    0.59490   0.36500   0.00310   1.000
    H93     H    0.55470   0.39090   0.98690   1.000
    C152    C    0.59450   0.32040   0.04990   1.000
    H94     H    0.55400   0.31800   0.06510   1.000
    C153    C    0.65270   0.27910   0.07490   1.000
    C154    C    0.71130   0.28770   0.05150   1.000
    H95     H    0.75160   0.26150   0.06750   1.000
    C155    C    0.71280   0.33320   0.00530   1.000
    H96     H    0.75370   0.33830   0.99090   1.000
    C156    C    0.65550   0.42370   0.92980   1.000
    N11     N    0.02770   0.01390   0.37058   1.000
    N12     N    0.24000   0.00590   0.37420   1.000
    N13     N    0.26080   0.00620   0.33300   1.000
    C157    C    0.05670   0.04460   0.33000   1.000
    H97     H    0.02880   0.06810   0.30190   1.000
    C158    C    0.12660   0.04300   0.32800   1.000
    H98     H    0.14570   0.06440   0.29910   1.000
    C159    C    0.16740   0.00840   0.37060   1.000
    C160    C    0.13730   0.97910   0.41240   1.000
    H99     H    0.16410   0.95840   0.44170   1.000
    C161    C    0.06740   0.98040   0.41090   1.000
    H100    H    0.04730   0.95720   0.43900   1.000
    C162    C    0.43500   0.94830   0.30060   1.000
    H101    H    0.45520   0.91340   0.27600   1.000
    C163    C    0.36430   0.95180   0.29910   1.000
    H102    H    0.33710   0.91930   0.27340   1.000
    C164    C    0.33420   0.00400   0.33600   1.000
    C165    C    0.37480   0.05260   0.37440   1.000
    H103    H    0.35470   0.08750   0.39900   1.000
    C166    C    0.44560   0.04910   0.37590   1.000
    H104    H    0.47270   0.08170   0.40160   1.000
    N14     N    0.47570   0.99700   0.33900   1.000
    C167    C    0.43410   0.99990   0.29390   1.000
    H105    H    0.45330   0.99860   0.26320   1.000
    C168    C    0.36350   0.00380   0.29380   1.000
    H106    H    0.33550   0.00500   0.26290   1.000
    C169    C    0.33470   0.00570   0.33980   1.000
    C170    C    0.37660   0.00380   0.38600   1.000
    H107    H    0.35730   0.00510   0.41680   1.000
    C171    C    0.44710   0.00000   0.38610   1.000
    H108    H    0.47510   0.99870   0.41700   1.000
    N15     N    0.47590   0.99810   0.34010   1.000
    Zn10    Zn   0.92321   0.48719   0.86451   1.000
    Zn11    Zn   0.75374   0.49790   0.85360   1.000
    Zn12    Zn   0.57980   0.51388   0.84244   1.000
    O37     O    0.92390   0.33260   0.83690   1.000
    O38     O    0.83890   0.39810   0.86724   1.000
    O39     O    0.57460   0.66640   0.83850   1.000
    O40     O    0.67271   0.59980   0.84190   1.000
    O41     O    0.91552   0.56470   0.92569   1.000
    O42     O    0.80406   0.58950   0.90626   1.000
    O43     O    0.79464   0.94130   0.29189   1.000
    O44     O    0.90800   0.94320   0.30051   1.000
    O45     O    0.70220   0.40680   0.80095   1.000
    O46     O    0.59248   0.44070   0.78104   1.000
    O47     O    0.59821   0.04990   0.40831   1.000
    O48     O    0.71131   0.06610   0.41355   1.000
    C172    C    0.82830   0.23170   0.84250   1.000
    C173    C    0.76770   0.21880   0.86200   1.000
    H109    H    0.74810   0.27030   0.87810   1.000
    C174    C    0.73480   0.12990   0.85830   1.000
    H110    H    0.69280   0.12290   0.87110   1.000
    C175    C    0.76340   0.05190   0.83590   1.000
    C176    C    0.82350   0.06620   0.81580   1.000
    H111    H    0.84310   0.01490   0.79980   1.000
    C177    C    0.85580   0.15480   0.81860   1.000
    H112    H    0.89650   0.16260   0.80430   1.000
    C178    C    0.86570   0.32520   0.84890   1.000
    C179    C    0.67030   0.77160   0.83770   1.000
    C180    C    0.63070   0.85410   0.83760   1.000
    H113    H    0.58370   0.84900   0.83820   1.000
    C181    C    0.66100   0.94460   0.83670   1.000
    H114    H    0.63390   0.99980   0.83680   1.000
    C182    C    0.73020   0.95480   0.83550   1.000
    C183    C    0.76770   0.87080   0.83380   1.000
    H115    H    0.81450   0.87520   0.83190   1.000
    C184    C    0.73800   0.78060   0.83480   1.000
    H116    H    0.76480   0.72540   0.83350   1.000
    C185    C    0.63790   0.67440   0.83970   1.000
    C186    C    0.85740   0.65510   0.98280   1.000
    C187    C    0.79660   0.67750   0.00170   1.000
    H117    H    0.75560   0.66110   0.98260   1.000
    C188    C    0.79520   0.72270   0.04730   1.000
    H118    H    0.75320   0.73580   0.05900   1.000
    C189    C    0.85450   0.75010   0.07710   1.000
    C190    C    0.91600   0.72840   0.05800   1.000
    H119    H    0.95700   0.74560   0.07680   1.000
    C191    C    0.91700   0.68220   0.01210   1.000
    H120    H    0.95880   0.66860   0.00030   1.000
    C192    C    0.85860   0.59950   0.93417   1.000
    C193    C    0.85170   0.88080   0.22500   1.000
    C194    C    0.79320   0.86130   0.19500   1.000
    H121    H    0.75140   0.87580   0.20660   1.000
    C195    C    0.79480   0.81950   0.14690   1.000
    H122    H    0.75360   0.80620   0.12730   1.000
    C196    C    0.85350   0.79750   0.12730   1.000
    C197    C    0.91160   0.81400   0.15890   1.000
    H123    H    0.95340   0.79710   0.14790   1.000
    C198    C    0.91100   0.85520   0.20700   1.000
    H124    H    0.95210   0.86530   0.22740   1.000
    C199    C    0.85030   0.92490   0.27643   1.000
    C200    C    0.64980   0.35580   0.72130   1.000
    C201    C    0.59060   0.34310   0.68900   1.000
    H125    H    0.54930   0.36530   0.69880   1.000
    C202    C    0.59170   0.29820   0.64240   1.000
    H126    H    0.55080   0.28790   0.62190   1.000
    C203    C    0.65140   0.26820   0.62540   1.000
    C204    C    0.70960   0.27540   0.65970   1.000
    H127    H    0.75060   0.25040   0.65090   1.000
    C205    C    0.70790   0.31920   0.70700   1.000
    H128    H    0.74780   0.32330   0.72930   1.000
    C206    C    0.64830   0.40530   0.77150   1.000
    C207    C    0.65390   0.12820   0.48010   1.000
    C208    C    0.59490   0.13500   0.50310   1.000
    H129    H    0.55470   0.10910   0.48690   1.000
    C209    C    0.59450   0.17960   0.54990   1.000
    H130    H    0.55400   0.18200   0.56510   1.000
    C210    C    0.65270   0.22090   0.57490   1.000
    C211    C    0.71130   0.21230   0.55150   1.000
    H131    H    0.75160   0.23850   0.56750   1.000
    C212    C    0.71280   0.16680   0.50530   1.000
    H132    H    0.75370   0.16170   0.49090   1.000
    C213    C    0.65550   0.07630   0.42980   1.000
    N16     N    0.02770   0.48610   0.87058   1.000
    N17     N    0.24000   0.49410   0.87420   1.000
    N18     N    0.26080   0.49380   0.83300   1.000
    C214    C    0.05670   0.45540   0.83000   1.000
    H133    H    0.02880   0.43190   0.80190   1.000
    C215    C    0.12660   0.45700   0.82800   1.000
    H134    H    0.14570   0.43560   0.79910   1.000
    C216    C    0.16740   0.49160   0.87060   1.000
    C217    C    0.13730   0.52090   0.91240   1.000
    H135    H    0.16410   0.54160   0.94170   1.000
    C218    C    0.06740   0.51960   0.91090   1.000
    H136    H    0.04730   0.54280   0.93900   1.000
    C219    C    0.43500   0.55170   0.80060   1.000
    H137    H    0.45520   0.58660   0.77600   1.000
    C220    C    0.36430   0.54820   0.79910   1.000
    H138    H    0.33710   0.58070   0.77340   1.000
    C221    C    0.33420   0.49600   0.83600   1.000
    C222    C    0.37480   0.44740   0.87440   1.000
    H139    H    0.35470   0.41250   0.89900   1.000
    C223    C    0.44560   0.45090   0.87590   1.000
    H140    H    0.47270   0.41830   0.90160   1.000
    N19     N    0.47570   0.50300   0.83900   1.000
    C224    C    0.43410   0.50010   0.79390   1.000
    H141    H    0.45330   0.50140   0.76320   1.000
    C225    C    0.36350   0.49620   0.79380   1.000
    H142    H    0.33550   0.49500   0.76290   1.000
    C226    C    0.33470   0.49430   0.83980   1.000
    C227    C    0.37660   0.49620   0.88600   1.000
    H143    H    0.35730   0.49490   0.91680   1.000
    C228    C    0.44710   0.50000   0.88610   1.000
    H144    H    0.47510   0.50130   0.91700   1.000
    N20     N    0.47590   0.50190   0.84010   1.000
