data_functionalizedCrystal
_audit_creation_method	'EQeq! by Chris Wilmer'
_symmetry_space_group_name_H-M	'P1'
_symmetry_Int_Tables_number	1
_symmetry_cell_setting	triclinic
loop_
_symmetry_equiv_pos_as_xyz
  x,y,z
_cell_length_a	8.4243
_cell_length_b	11.6368
_cell_length_c	15.7095
_cell_angle_alpha	95.494
_cell_angle_beta	104.725
_cell_angle_gamma	99.122
loop_
_atom_site_label
_atom_site_type_symbol
_atom_site_fract_x
_atom_site_fract_y
_atom_site_fract_z
_atom_site_charge
Mof_Cd	Cd	0.52326	0.55008	0.67617	0.486
Mof_Cd	Cd	0.47674	0.44992	0.32383	0.486
Mof_Cd	Cd	0.5	0.5	-0	0.468
Mof_H 	H 	0.9715	0.4371	0.5705	0.123
Mof_H 	H 	0.0605	0.5725	0.5849	0.117
Mof_H 	H 	0.8686	0.4112	0.8117	0.116
Mof_H 	H 	0.0166	0.4509	0.9019	0.13
Mof_H 	H 	0.9777	0.5632	0.7451	0.119
Mof_H 	H 	0.1068	0.6257	0.8376	0.114
Mof_H 	H 	0.4876	0.3494	0.8006	0.036
Mof_H 	H 	0.6199	0.3333	0.5775	0.034
Mof_H 	H 	0.6474	0.1399	0.5823	0.074
Mof_H 	H 	0.5058	0.1555	0.8104	0.078
Mof_H 	H 	0.6555	0.9664	0.5855	0.079
Mof_H 	H 	0.4855	0.9726	0.8043	0.079
Mof_H 	H 	0.6326	0.7661	0.5807	0.038
Mof_H 	H 	0.2492	0.0577	0.9787	0.089
Mof_H 	H 	0.7516	0.1183	0.0155	0.089
Mof_H 	H 	0.2572	0.2558	0.9763	0.037
Mof_H 	H 	0.7443	0.3154	0.0121	0.033
Mof_H 	H 	0.467	0.7716	0.7933	0.031
Mof_H 	H 	0.0285	0.5629	0.4295	0.123
Mof_H 	H 	0.9395	0.4275	0.4151	0.117
Mof_H 	H 	0.1314	0.5888	0.1883	0.112
Mof_H 	H 	0.9834	0.5491	0.0981	0.12
Mof_H 	H 	0.0223	0.4368	0.2549	0.12
Mof_H 	H 	0.8932	0.3743	0.1624	0.113
Mof_H 	H 	0.5124	0.6506	0.1994	0.034
Mof_H 	H 	0.3801	0.6667	0.4225	0.033
Mof_H 	H 	0.3526	0.8601	0.4177	0.077
Mof_H 	H 	0.4942	0.8445	0.1896	0.077
Mof_H 	H 	0.3445	0.0336	0.4145	0.075
Mof_H 	H 	0.5145	0.0274	0.1957	0.071
Mof_H 	H 	0.3674	0.2339	0.4193	0.038
Mof_H 	H 	0.7508	0.9423	0.0213	0.062
Mof_H 	H 	0.2484	0.8817	0.9845	0.067
Mof_H 	H 	0.7428	0.7442	0.0237	0.039
Mof_H 	H 	0.2557	0.6846	0.9879	0.043
Mof_H 	H 	0.533	0.2284	0.2067	0.028
Mof_C 	C 	0.9751	0.5102	0.54291	-0.213
Mof_C 	C 	0.9437	0.48	0.85195	-0.218
Mof_C 	C 	0.0503	0.5486	0.80172	-0.215
Mof_C 	C 	0.5186	0.3059	0.75514	0.076
Mof_C 	C 	0.5964	0.2964	0.62546	0.075
Mof_C 	C 	0.6113	0.1803	0.62729	-0.106
Mof_C 	C 	0.5289	0.1897	0.76124	-0.108
Mof_C 	C 	0.573	0.12203	0.69598	0.048
Mof_C 	C 	0.5698	0.99462	0.69465	0.06
Mof_C 	C 	0.6149	0.9286	0.62877	-0.116
Mof_C 	C 	0.5152	0.932	0.75702	-0.117
Mof_C 	C 	0.6009	0.8088	0.6263	0.075
Mof_C 	C 	0.3531	0.1088	0.98636	-0.142
Mof_C 	C 	0.6482	0.1443	0.008	-0.16
Mof_C 	C 	0.5004	0.0632	0.99885	0.105
Mof_C 	C 	0.3589	0.2274	0.98515	0.091
Mof_C 	C 	0.6429	0.2621	0.006	0.063
Mof_C 	C 	0.5045	0.8118	0.75006	0.082
Mof_C 	C 	0.0249	0.4898	0.45709	-0.213
Mof_C 	C 	0.0563	0.52	0.14805	-0.213
Mof_C 	C 	0.9497	0.4514	0.19828	-0.219
Mof_C 	C 	0.4814	0.6941	0.24486	0.077
Mof_C 	C 	0.4036	0.7036	0.37454	0.077
Mof_C 	C 	0.3887	0.8197	0.37271	-0.111
Mof_C 	C 	0.4711	0.8103	0.23876	-0.113
Mof_C 	C 	0.427	0.87797	0.30402	0.056
Mof_C 	C 	0.4302	0.00538	0.30535	0.049
Mof_C 	C 	0.3851	0.0714	0.37123	-0.111
Mof_C 	C 	0.4848	0.068	0.24298	-0.113
Mof_C 	C 	0.3991	0.1912	0.3737	0.071
Mof_C 	C 	0.6469	0.8912	0.01364	-0.085
Mof_C 	C 	0.3518	0.8557	0.992	-0.069
Mof_C 	C 	0.4996	0.9368	0.00115	-0.018
Mof_C 	C 	0.6411	0.7726	0.01485	0.052
Mof_C 	C 	0.3571	0.7379	0.994	0.065
Mof_C 	C 	0.4955	0.1882	0.24994	0.077
Mof_S 	S 	0.77629	0.55254	0.52392	0.519
Mof_S 	S 	0.82292	0.57223	0.89352	0.525
Mof_S 	S 	0.20243	0.46992	0.77919	0.522
Mof_S 	S 	0.22371	0.44746	0.47608	0.519
Mof_S 	S 	0.17708	0.42777	0.10648	0.523
Mof_S 	S 	0.79757	0.53008	0.22081	0.524
Mof_N 	N 	0.501	0.30495	0.99588	-0.132
Mof_N 	N 	0.5503	0.36019	0.68798	-0.143
Mof_N 	N 	0.5444	0.74923	0.68535	-0.135
Mof_N 	N 	0.499	0.69505	0.00412	-0.145
Mof_N 	N 	0.4497	0.63981	0.31202	-0.144
Mof_N 	N 	0.4556	0.25077	0.31465	-0.135
Mof_O 	O 	0.74783	0.56365	0.61212	-0.294
Mof_O 	O 	0.7847	0.66075	0.48647	-0.256
Mof_O 	O 	0.65715	0.45359	0.46367	-0.286
Mof_O 	O 	0.7211	0.49684	0.937	-0.284
Mof_O 	O 	0.7209	0.61384	0.81744	-0.283
Mof_O 	O 	0.94172	0.66649	0.95497	-0.261
Mof_O 	O 	0.2964	0.44546	0.86532	-0.283
Mof_O 	O 	0.3058	0.55175	0.7405	-0.294
Mof_O 	O 	0.1145	0.36448	0.7195	-0.257
Mof_O 	O 	0.25217	0.43635	0.38788	-0.294
Mof_O 	O 	0.2153	0.33925	0.51353	-0.256
Mof_O 	O 	0.34285	0.54641	0.53633	-0.286
Mof_O 	O 	0.2789	0.50316	0.063	-0.301
Mof_O 	O 	0.2791	0.38616	0.18256	-0.286
Mof_O 	O 	0.05828	0.33351	0.04503	-0.276
Mof_O 	O 	0.7036	0.55454	0.13468	-0.291
Mof_O 	O 	0.6942	0.44825	0.2595	-0.296
Mof_O 	O 	0.8855	0.63552	0.2805	-0.258
_end
