data_functionalizedCrystal
_audit_creation_method	'EQeq! by Chris Wilmer'
_symmetry_space_group_name_H-M	'P1'
_symmetry_Int_Tables_number	1
_symmetry_cell_setting	triclinic
loop_
_symmetry_equiv_pos_as_xyz
  x,y,z
_cell_length_a	7.458
_cell_length_b	16.239
_cell_length_c	16.239
_cell_angle_alpha	120
_cell_angle_beta	90
_cell_angle_gamma	90
loop_
_atom_site_label
_atom_site_type_symbol
_atom_site_fract_x
_atom_site_fract_y
_atom_site_fract_z
_atom_site_charge
Mof_Y 	Y 	0.1255	0.66667	0.33334	1.632
Mof_Y 	Y 	0.6255	0.33333	0.66666	1.613
Mof_Y 	Y 	0.6255	0.66667	0.33334	1.613
Mof_Y 	Y 	0.1255	0.33333	0.66666	1.632
Mof_H 	H 	0.6252	0.86	0.5663	-0.017
Mof_H 	H 	0.6252	0.7063	0.14	-0.016
Mof_H 	H 	0.6252	0.4337	0.2937	-0.016
Mof_H 	H 	0.1252	0.14	0.4337	-0.017
Mof_H 	H 	0.1252	0.2937	0.86	-0.018
Mof_H 	H 	0.1252	0.5663	0.7063	-0.017
Mof_H 	H 	0.1252	0.7063	0.5663	-0.017
Mof_H 	H 	0.1252	0.4337	0.14	-0.017
Mof_H 	H 	0.1252	0.86	0.2937	-0.018
Mof_H 	H 	0.6252	0.2937	0.4337	-0.016
Mof_H 	H 	0.6252	0.5663	0.86	-0.016
Mof_H 	H 	0.6252	0.14	0.7063	-0.015
Mof_H 	H 	0.0563	3.3374e-17	0.5536	0.01
Mof_H 	H 	0.0563	0.5536	-0	0.01
Mof_H 	H 	0.0563	0.4464	0.4464	0.008
Mof_H 	H 	0.5563	0	0.4464	-0.021
Mof_H 	H 	0.5563	0.4464	-0	-0.021
Mof_H 	H 	0.5563	0.5536	0.5536	-0.023
Mof_C 	C 	0.6858	0.918	0.5842	0.182
Mof_C 	C 	0.8556	0.9155	0.5486	-0.278
Mof_C 	C 	0.9386	0.827	0.4853	0.521
Mof_C 	C 	0.6858	0.6662	0.082	0.176
Mof_C 	C 	0.8556	0.6331	0.0845	-0.283
Mof_C 	C 	0.9386	0.6583	0.173	0.521
Mof_C 	C 	0.6858	0.4158	0.3338	0.178
Mof_C 	C 	0.8556	0.4514	0.3669	-0.288
Mof_C 	C 	0.9386	0.5147	0.3417	0.523
Mof_C 	C 	0.1858	0.082	0.4158	0.193
Mof_C 	C 	0.3556	0.0845	0.4514	-0.315
Mof_C 	C 	0.4386	0.173	0.5147	0.556
Mof_C 	C 	0.1858	0.3338	0.918	0.198
Mof_C 	C 	0.3556	0.3669	0.9155	-0.31
Mof_C 	C 	0.4386	0.3417	0.827	0.555
Mof_C 	C 	0.1858	0.5842	0.6662	0.196
Mof_C 	C 	0.3556	0.5486	0.6331	-0.318
Mof_C 	C 	0.4386	0.4853	0.6583	0.558
Mof_C 	C 	0.1858	0.6662	0.5842	0.196
Mof_C 	C 	0.3556	0.6331	0.5486	-0.318
Mof_C 	C 	0.4386	0.6583	0.4853	0.558
Mof_C 	C 	0.1858	0.4158	0.082	0.193
Mof_C 	C 	0.3556	0.4514	0.0845	-0.315
Mof_C 	C 	0.4386	0.5147	0.173	0.556
Mof_C 	C 	0.1858	0.918	0.3338	0.198
Mof_C 	C 	0.3556	0.9155	0.3669	-0.31
Mof_C 	C 	0.4386	0.827	0.3417	0.555
Mof_C 	C 	0.6858	0.3338	0.4158	0.178
Mof_C 	C 	0.8556	0.3669	0.4514	-0.288
Mof_C 	C 	0.9386	0.3417	0.5147	0.523
Mof_C 	C 	0.6858	0.5842	0.918	0.182
Mof_C 	C 	0.8556	0.5486	0.9155	-0.278
Mof_C 	C 	0.9386	0.4853	0.827	0.521
Mof_C 	C 	0.6858	0.082	0.6662	0.176
Mof_C 	C 	0.8556	0.0845	0.6331	-0.283
Mof_C 	C 	0.9386	0.173	0.6583	0.521
Mof_C 	C 	0.9381	0	0.5755	0.19
Mof_C 	C 	0.9381	0.5755	-0	0.19
Mof_C 	C 	0.9381	0.4245	0.4245	0.201
Mof_C 	C 	0.4381	3.3374e-17	0.4245	0.249
Mof_C 	C 	0.4381	0.4245	-0	0.249
Mof_C 	C 	0.4381	0.5755	0.5755	0.261
Mof_N 	N 	0.606	6.67481e-17	0.6428	-0.162
Mof_N 	N 	0.606	0.6428	-0	-0.162
Mof_N 	N 	0.606	0.3572	0.3572	-0.16
Mof_N 	N 	0.106	0	0.3572	-0.165
Mof_N 	N 	0.106	0.3572	-0	-0.165
Mof_N 	N 	0.106	0.6428	0.6428	-0.161
Mof_O 	O 	0.8944	0.7446	0.4462	-0.537
Mof_O 	O 	0.0875	0.8252	0.4527	-0.429
Mof_O 	O 	0.8944	0.7016	0.2554	-0.537
Mof_O 	O 	0.0875	0.6275	0.1748	-0.431
Mof_O 	O 	0.8944	0.5538	0.2984	-0.538
Mof_O 	O 	0.0875	0.5473	0.3725	-0.431
Mof_O 	O 	0.3944	0.2554	0.5538	-0.54
Mof_O 	O 	0.5875	0.1748	0.5473	-0.451
Mof_O 	O 	0.3944	0.2984	0.7446	-0.54
Mof_O 	O 	0.5875	0.3725	0.8252	-0.449
Mof_O 	O 	0.3944	0.4462	0.7016	-0.54
Mof_O 	O 	0.5875	0.4527	0.6275	-0.451
Mof_O 	O 	0.3944	0.7016	0.4462	-0.54
Mof_O 	O 	0.5875	0.6275	0.4527	-0.451
Mof_O 	O 	0.3944	0.5538	0.2554	-0.54
Mof_O 	O 	0.5875	0.5473	0.1748	-0.451
Mof_O 	O 	0.3944	0.7446	0.2984	-0.54
Mof_O 	O 	0.5875	0.8252	0.3725	-0.449
Mof_O 	O 	0.8944	0.2984	0.5538	-0.538
Mof_O 	O 	0.0875	0.3725	0.5473	-0.431
Mof_O 	O 	0.8944	0.4462	0.7446	-0.537
Mof_O 	O 	0.0875	0.4527	0.8252	-0.429
Mof_O 	O 	0.8944	0.2554	0.7016	-0.537
Mof_O 	O 	0.0875	0.1748	0.6275	-0.431
_end
