data_functionalizedCrystal
_audit_creation_method	'EQeq! by Chris Wilmer'
_symmetry_space_group_name_H-M	'P1'
_symmetry_Int_Tables_number	1
_symmetry_cell_setting	triclinic
loop_
_symmetry_equiv_pos_as_xyz
  x,y,z
_cell_length_a	25.4084
_cell_length_b	25.4084
_cell_length_c	25.4084
_cell_angle_alpha	90
_cell_angle_beta	90
_cell_angle_gamma	90
loop_
_atom_site_label
_atom_site_type_symbol
_atom_site_fract_x
_atom_site_fract_y
_atom_site_fract_z
_atom_site_charge
Mof_C 	C 	0.6397	0.6751	0.9595	-0.028
Mof_H 	H 	0.6148	0.6749	0.931	0.064
Mof_C 	C 	0.6787	0.714	0.9614	0.084
Mof_H 	H 	0.6794	0.741	0.9349	0.031
Mof_C 	C 	0.3603	0.3249	0.9595	-0.033
Mof_H 	H 	0.3852	0.3251	0.931	0.061
Mof_C 	C 	0.3213	0.286	0.9614	0.094
Mof_H 	H 	0.3206	0.259	0.9349	0.019
Mof_C 	C 	0.3603	0.6751	0.0405	-0.084
Mof_H 	H 	0.3852	0.6749	0.069	0.051
Mof_C 	C 	0.3213	0.714	0.0386	0.03
Mof_H 	H 	0.3206	0.741	0.0651	0.015
Mof_C 	C 	0.6397	0.3249	0.0405	-0.087
Mof_H 	H 	0.6148	0.3251	0.069	0.049
Mof_C 	C 	0.6787	0.286	0.0386	0.028
Mof_H 	H 	0.6794	0.259	0.0651	0.01
Mof_C 	C 	0.9595	0.6397	0.6751	-0.028
Mof_H 	H 	0.931	0.6148	0.6749	0.064
Mof_C 	C 	0.9614	0.6787	0.714	0.084
Mof_H 	H 	0.9349	0.6794	0.741	0.031
Mof_C 	C 	0.9595	0.3603	0.3249	-0.033
Mof_H 	H 	0.931	0.3852	0.3251	0.061
Mof_C 	C 	0.9614	0.3213	0.286	0.094
Mof_H 	H 	0.9349	0.3206	0.259	0.019
Mof_C 	C 	0.0405	0.3603	0.6751	-0.084
Mof_H 	H 	0.069	0.3852	0.6749	0.051
Mof_C 	C 	0.0386	0.3213	0.714	0.03
Mof_H 	H 	0.0651	0.3206	0.741	0.016
Mof_C 	C 	0.0405	0.6397	0.3249	-0.086
Mof_H 	H 	0.069	0.6148	0.3251	0.05
Mof_C 	C 	0.0386	0.6787	0.286	0.029
Mof_H 	H 	0.0651	0.6794	0.259	0.011
Mof_C 	C 	0.6751	0.9595	0.6397	-0.027
Mof_H 	H 	0.6749	0.931	0.6148	0.065
Mof_C 	C 	0.714	0.9614	0.6787	0.085
Mof_H 	H 	0.741	0.9349	0.6794	0.032
Mof_C 	C 	0.3249	0.9595	0.3603	-0.032
Mof_H 	H 	0.3251	0.931	0.3852	0.062
Mof_C 	C 	0.286	0.9614	0.3213	0.095
Mof_H 	H 	0.259	0.9349	0.3206	0.02
Mof_C 	C 	0.6751	0.0405	0.3603	-0.083
Mof_H 	H 	0.6749	0.069	0.3852	0.052
Mof_C 	C 	0.714	0.0386	0.3213	0.031
Mof_H 	H 	0.741	0.0651	0.3206	0.016
Mof_C 	C 	0.3249	0.0405	0.6397	-0.086
Mof_H 	H 	0.3251	0.069	0.6148	0.05
Mof_C 	C 	0.286	0.0386	0.6787	0.029
Mof_H 	H 	0.259	0.0651	0.6794	0.011
Mof_C 	C 	0.6751	0.6397	0.0405	-0.082
Mof_H 	H 	0.6749	0.6148	0.069	0.053
Mof_C 	C 	0.714	0.6787	0.0386	0.026
Mof_H 	H 	0.741	0.6794	0.0651	0.02
Mof_C 	C 	0.3249	0.3603	0.0405	-0.088
Mof_H 	H 	0.3251	0.3852	0.069	0.049
Mof_C 	C 	0.286	0.3213	0.0386	0.034
Mof_H 	H 	0.259	0.3206	0.0651	0.007
Mof_C 	C 	0.6751	0.3603	0.9595	-0.029
Mof_H 	H 	0.6749	0.3852	0.931	0.065
Mof_C 	C 	0.714	0.3213	0.9614	0.091
Mof_H 	H 	0.741	0.3206	0.9349	0.029
Mof_C 	C 	0.3249	0.6397	0.9595	-0.031
Mof_H 	H 	0.3251	0.6148	0.931	0.063
Mof_C 	C 	0.286	0.6787	0.9614	0.09
Mof_H 	H 	0.259	0.6794	0.9349	0.024
Mof_C 	C 	0.6397	0.9595	0.3249	-0.031
Mof_H 	H 	0.6148	0.931	0.3251	0.063
Mof_C 	C 	0.6787	0.9614	0.286	0.09
Mof_H 	H 	0.6794	0.9349	0.259	0.024
Mof_C 	C 	0.3603	0.9595	0.6751	-0.029
Mof_H 	H 	0.3852	0.931	0.6749	0.065
Mof_C 	C 	0.3213	0.9614	0.714	0.091
Mof_H 	H 	0.3206	0.9349	0.741	0.029
Mof_C 	C 	0.3603	0.0405	0.3249	-0.088
Mof_H 	H 	0.3852	0.069	0.3251	0.049
Mof_C 	C 	0.3213	0.0386	0.286	0.034
Mof_H 	H 	0.3206	0.0651	0.259	0.007
Mof_C 	C 	0.6397	0.0405	0.6751	-0.082
Mof_H 	H 	0.6148	0.069	0.6749	0.053
Mof_C 	C 	0.6787	0.0386	0.714	0.026
Mof_H 	H 	0.6794	0.0651	0.741	0.02
Mof_C 	C 	0.9595	0.6751	0.3603	-0.029
Mof_H 	H 	0.931	0.6749	0.3852	0.065
Mof_C 	C 	0.9614	0.714	0.3213	0.091
Mof_H 	H 	0.9349	0.741	0.3206	0.029
Mof_C 	C 	0.9595	0.3249	0.6397	-0.031
Mof_H 	H 	0.931	0.3251	0.6148	0.063
Mof_C 	C 	0.9614	0.286	0.6787	0.09
Mof_H 	H 	0.9349	0.259	0.6794	0.024
Mof_C 	C 	0.0405	0.6751	0.6397	-0.082
Mof_H 	H 	0.069	0.6749	0.6148	0.053
Mof_C 	C 	0.0386	0.714	0.6787	0.026
Mof_H 	H 	0.0651	0.741	0.6794	0.02
Mof_C 	C 	0.0405	0.3249	0.3603	-0.088
Mof_H 	H 	0.069	0.3251	0.3852	0.049
Mof_C 	C 	0.0386	0.286	0.3213	0.034
Mof_H 	H 	0.0651	0.259	0.3206	0.007
Mof_C 	C 	0.3603	0.3249	0.0405	-0.088
Mof_H 	H 	0.3852	0.3251	0.069	0.049
Mof_C 	C 	0.3213	0.286	0.0386	0.034
Mof_H 	H 	0.3206	0.259	0.0651	0.007
Mof_C 	C 	0.6397	0.6751	0.0405	-0.082
Mof_H 	H 	0.6148	0.6749	0.069	0.053
Mof_C 	C 	0.6787	0.714	0.0386	0.026
Mof_H 	H 	0.6794	0.741	0.0651	0.02
Mof_C 	C 	0.6397	0.3249	0.9595	-0.031
Mof_H 	H 	0.6148	0.3251	0.931	0.063
Mof_C 	C 	0.6787	0.286	0.9614	0.09
Mof_H 	H 	0.6794	0.259	0.9349	0.024
Mof_C 	C 	0.3603	0.6751	0.9595	-0.029
Mof_H 	H 	0.3852	0.6749	0.931	0.065
Mof_C 	C 	0.3213	0.714	0.9614	0.091
Mof_H 	H 	0.3206	0.741	0.9349	0.029
Mof_C 	C 	0.0405	0.3603	0.3249	-0.088
Mof_H 	H 	0.069	0.3852	0.3251	0.049
Mof_C 	C 	0.0386	0.3213	0.286	0.034
Mof_H 	H 	0.0651	0.3206	0.259	0.007
Mof_C 	C 	0.0405	0.6397	0.6751	-0.082
Mof_H 	H 	0.069	0.6148	0.6749	0.053
Mof_C 	C 	0.0386	0.6787	0.714	0.026
Mof_H 	H 	0.0651	0.6794	0.741	0.02
Mof_C 	C 	0.9595	0.6397	0.3249	-0.031
Mof_H 	H 	0.931	0.6148	0.3251	0.063
Mof_C 	C 	0.9614	0.6787	0.286	0.09
Mof_H 	H 	0.9349	0.6794	0.259	0.024
Mof_C 	C 	0.9595	0.3603	0.6751	-0.029
Mof_H 	H 	0.931	0.3852	0.6749	0.065
Mof_C 	C 	0.9614	0.3213	0.714	0.091
Mof_H 	H 	0.9349	0.3206	0.741	0.029
Mof_C 	C 	0.3249	0.0405	0.3603	-0.088
Mof_H 	H 	0.3251	0.069	0.3852	0.049
Mof_C 	C 	0.286	0.0386	0.3213	0.034
Mof_H 	H 	0.259	0.0651	0.3206	0.007
Mof_C 	C 	0.6751	0.0405	0.6397	-0.082
Mof_H 	H 	0.6749	0.069	0.6148	0.053
Mof_C 	C 	0.714	0.0386	0.6787	0.026
Mof_H 	H 	0.741	0.0651	0.6794	0.02
Mof_C 	C 	0.3249	0.9595	0.6397	-0.031
Mof_H 	H 	0.3251	0.931	0.6148	0.063
Mof_C 	C 	0.286	0.9614	0.6787	0.09
Mof_H 	H 	0.259	0.9349	0.6794	0.024
Mof_C 	C 	0.6751	0.9595	0.3603	-0.029
Mof_H 	H 	0.6749	0.931	0.3852	0.065
Mof_C 	C 	0.714	0.9614	0.3213	0.091
Mof_H 	H 	0.741	0.9349	0.3206	0.029
Mof_C 	C 	0.3249	0.3603	0.9595	-0.032
Mof_H 	H 	0.3251	0.3852	0.931	0.062
Mof_C 	C 	0.286	0.3213	0.9614	0.095
Mof_H 	H 	0.259	0.3206	0.9349	0.02
Mof_C 	C 	0.6751	0.6397	0.9595	-0.027
Mof_H 	H 	0.6749	0.6148	0.931	0.065
Mof_C 	C 	0.714	0.6787	0.9614	0.085
Mof_H 	H 	0.741	0.6794	0.9349	0.032
Mof_C 	C 	0.3249	0.6397	0.0405	-0.086
Mof_H 	H 	0.3251	0.6148	0.069	0.05
Mof_C 	C 	0.286	0.6787	0.0386	0.029
Mof_H 	H 	0.259	0.6794	0.0651	0.011
Mof_C 	C 	0.6751	0.3603	0.0405	-0.083
Mof_H 	H 	0.6749	0.3852	0.069	0.052
Mof_C 	C 	0.714	0.3213	0.0386	0.031
Mof_H 	H 	0.741	0.3206	0.0651	0.016
Mof_C 	C 	0.3603	0.0405	0.6751	-0.083
Mof_H 	H 	0.3852	0.069	0.6749	0.052
Mof_C 	C 	0.3213	0.0386	0.714	0.031
Mof_H 	H 	0.3206	0.0651	0.741	0.016
Mof_C 	C 	0.6397	0.0405	0.3249	-0.086
Mof_H 	H 	0.6148	0.069	0.3251	0.05
Mof_C 	C 	0.6787	0.0386	0.286	0.029
Mof_H 	H 	0.6794	0.0651	0.259	0.011
Mof_C 	C 	0.6397	0.9595	0.6751	-0.027
Mof_H 	H 	0.6148	0.931	0.6749	0.065
Mof_C 	C 	0.6787	0.9614	0.714	0.085
Mof_H 	H 	0.6794	0.9349	0.741	0.032
Mof_C 	C 	0.3603	0.9595	0.3249	-0.032
Mof_H 	H 	0.3852	0.931	0.3251	0.062
Mof_C 	C 	0.3213	0.9614	0.286	0.095
Mof_H 	H 	0.3206	0.9349	0.259	0.02
Mof_C 	C 	0.0405	0.3249	0.6397	-0.086
Mof_H 	H 	0.069	0.3251	0.6148	0.05
Mof_C 	C 	0.0386	0.286	0.6787	0.029
Mof_H 	H 	0.0651	0.259	0.6794	0.011
Mof_C 	C 	0.0405	0.6751	0.3603	-0.083
Mof_H 	H 	0.069	0.6749	0.3852	0.052
Mof_C 	C 	0.0386	0.714	0.3213	0.031
Mof_H 	H 	0.0651	0.741	0.3206	0.016
Mof_C 	C 	0.9595	0.3249	0.3603	-0.032
Mof_H 	H 	0.931	0.3251	0.3852	0.062
Mof_C 	C 	0.9614	0.286	0.3213	0.095
Mof_H 	H 	0.9349	0.259	0.3206	0.02
Mof_C 	C 	0.9595	0.6751	0.6397	-0.027
Mof_H 	H 	0.931	0.6749	0.6148	0.065
Mof_C 	C 	0.9614	0.714	0.6787	0.085
Mof_H 	H 	0.9349	0.741	0.6794	0.032
Mof_Zr	Zr	-6.15571e-33	0.90239	-0	3.198
Mof_Zr	Zr	-7.69464e-34	0.09761	-0	3.198
Mof_Zr	Zr	-8.92801e-33	-6.15571e-33	0.90239	3.198
Mof_Zr	Zr	-4.03485e-34	-7.69464e-34	0.09761	3.198
Mof_Zr	Zr	0.90239	0	-0	3.198
Mof_Zr	Zr	0.09761	0	-0	3.198
Mof_Zn	Zn	0.5	0.5	-0	1.159
Mof_Zn	Zn	1.8747e-33	0.5	0.5	1.159
Mof_Zn	Zn	0.5	0	0.5	1.159
Mof_O 	O 	0.952	0.952	0.952	-1.116
Mof_O 	O 	0.048	0.048	0.952	-1.231
Mof_O 	O 	0.048	0.952	0.048	-1.231
Mof_O 	O 	0.952	0.048	0.048	-1.231
Mof_O 	O 	0.952	0.952	0.048	-1.171
Mof_O 	O 	0.048	0.048	0.048	-1.296
Mof_O 	O 	0.952	0.048	0.952	-1.171
Mof_O 	O 	0.048	0.952	0.952	-1.171
Mof_O 	O 	0.9236	0.8599	-0	-0.624
Mof_C 	C 	0.8468	0.7816	-0	0.217
Mof_H 	H 	0.8819	0.7712	-0	-0.019
Mof_C 	C 	0.8073	0.7442	-0	-0.323
Mof_H 	H 	0.8167	0.7089	-0	0.137
Mof_C 	C 	0.6121	0.5432	-0	0.074
Mof_C 	C 	0.6664	0.5264	-0	-0.087
Mof_H 	H 	0.6958	0.5481	-0	0.045
Mof_O 	O 	0.0764	0.1401	-0	-0.679
Mof_C 	C 	0.1532	0.2184	-0	0.246
Mof_H 	H 	0.1181	0.2288	-0	-0.057
Mof_C 	C 	0.1927	0.2558	-0	-0.367
Mof_H 	H 	0.1833	0.2911	-0	0.135
Mof_C 	C 	0.3879	0.4568	-0	0.073
Mof_C 	C 	0.3336	0.4736	-0	-0.089
Mof_H 	H 	0.3042	0.4519	-0	0.038
Mof_O 	O 	0.0764	0.8599	-0	-0.672
Mof_C 	C 	0.1532	0.7816	-0	0.231
Mof_H 	H 	0.1181	0.7712	-0	-0.049
Mof_C 	C 	0.1927	0.7442	-0	-0.346
Mof_H 	H 	0.1833	0.7089	-0	0.13
Mof_C 	C 	0.3879	0.5432	-0	0.073
Mof_C 	C 	0.3336	0.5264	-0	-0.089
Mof_H 	H 	0.3042	0.5481	-0	0.039
Mof_O 	O 	0.9236	0.1401	-0	-0.629
Mof_C 	C 	0.8468	0.2184	-0	0.232
Mof_H 	H 	0.8819	0.2288	-0	-0.026
Mof_C 	C 	0.8073	0.2558	-0	-0.342
Mof_H 	H 	0.8167	0.2911	-0	0.142
Mof_C 	C 	0.6121	0.4568	-0	0.074
Mof_C 	C 	0.6664	0.4736	-0	-0.087
Mof_H 	H 	0.6958	0.4519	-0	0.045
Mof_O 	O 	1.55355e-32	0.9236	0.8599	-0.624
Mof_C 	C 	2.93053e-33	0.8468	0.7816	0.217
Mof_H 	H 	2.89154e-33	0.8819	0.7712	-0.019
Mof_C 	C 	1.51017e-32	0.8073	0.7442	-0.323
Mof_H 	H 	2.65795e-33	0.8167	0.7089	0.137
Mof_C 	C 	8.19239e-33	0.6121	0.5432	0.074
Mof_C 	C 	1.97368e-33	0.6664	0.5264	-0.087
Mof_H 	H 	2.05505e-33	0.6958	0.5481	0.045
Mof_O 	O 	-1.01364e-33	0.0764	0.1401	-0.679
Mof_C 	C 	8.18869e-34	0.1532	0.2184	0.246
Mof_H 	H 	8.57863e-34	0.1181	0.2288	-0.057
Mof_C 	C 	-2.11876e-33	0.1927	0.2558	-0.367
Mof_H 	H 	-1.98641e-33	0.1833	0.2911	0.135
Mof_C 	C 	1.71273e-33	0.3879	0.4568	0.073
Mof_C 	C 	1.77572e-33	0.3336	0.4736	-0.089
Mof_H 	H 	-1.06171e-32	0.3042	0.4519	0.038
Mof_O 	O 	-2.93161e-33	0.0764	0.8599	-0.672
Mof_C 	C 	-9.3809e-33	0.1532	0.7816	0.231
Mof_H 	H 	-3.26418e-33	0.1181	0.7712	-0.049
Mof_C 	C 	2.7903e-33	0.1927	0.7442	-0.346
Mof_H 	H 	2.65795e-33	0.1833	0.7089	0.13
Mof_C 	C 	8.19239e-33	0.3879	0.5432	0.073
Mof_C 	C 	8.1294e-33	0.3336	0.5264	-0.089
Mof_H 	H 	-4.10067e-33	0.3042	0.5481	0.039
Mof_O 	O 	1.12978e-32	0.9236	0.1401	-0.629
Mof_C 	C 	1.00524e-32	0.8468	0.2184	0.232
Mof_H 	H 	8.57863e-34	0.8819	0.2288	-0.026
Mof_C 	C 	1.01927e-32	0.8073	0.2558	-0.342
Mof_H 	H 	1.09145e-33	0.8167	0.2911	0.142
Mof_C 	C 	-4.44299e-33	0.6121	0.4568	0.074
Mof_C 	C 	1.77572e-33	0.6664	0.4736	-0.087
Mof_H 	H 	7.85007e-33	0.6958	0.4519	0.045
Mof_O 	O 	0.8599	1.23114e-32	0.9236	-0.624
Mof_C 	C 	0.7816	6.15571e-33	0.8468	0.217
Mof_H 	H 	0.7712	0	0.8819	-0.019
Mof_C 	C 	0.7442	6.15571e-33	0.8073	-0.323
Mof_H 	H 	0.7089	-6.15571e-33	0.8167	0.137
Mof_C 	C 	0.5432	0	0.6121	0.074
Mof_C 	C 	0.5264	0	0.6664	-0.087
Mof_H 	H 	0.5481	0	0.6958	0.045
Mof_O 	O 	0.1401	0	0.0764	-0.679
Mof_C 	C 	0.2184	0	0.1532	0.246
Mof_H 	H 	0.2288	0	0.1181	-0.057
Mof_C 	C 	0.2558	1.53893e-33	0.1927	-0.367
Mof_H 	H 	0.2911	1.53893e-33	0.1833	0.135
Mof_C 	C 	0.4568	3.07786e-33	0.3879	0.073
Mof_C 	C 	0.4736	6.15571e-33	0.3336	-0.089
Mof_H 	H 	0.4519	-3.07786e-33	0.3042	0.038
Mof_O 	O 	0.8599	0	0.0764	-0.672
Mof_C 	C 	0.7816	0	0.1532	0.231
Mof_H 	H 	0.7712	0	0.1181	-0.049
Mof_C 	C 	0.7442	1.53893e-33	0.1927	-0.346
Mof_H 	H 	0.7089	1.53893e-33	0.1833	0.13
Mof_C 	C 	0.5432	3.07786e-33	0.3879	0.073
Mof_C 	C 	0.5264	6.15571e-33	0.3336	-0.089
Mof_H 	H 	0.5481	-3.07786e-33	0.3042	0.039
Mof_O 	O 	0.1401	1.23114e-32	0.9236	-0.629
Mof_C 	C 	0.2184	6.15571e-33	0.8468	0.232
Mof_H 	H 	0.2288	0	0.8819	-0.026
Mof_C 	C 	0.2558	6.15571e-33	0.8073	-0.342
Mof_H 	H 	0.2911	-6.15571e-33	0.8167	0.142
Mof_C 	C 	0.4568	0	0.6121	0.074
Mof_C 	C 	0.4736	0	0.6664	-0.087
Mof_H 	H 	0.4519	0	0.6958	0.045
Mof_O 	O 	0.8599	0.9236	-0	-0.624
Mof_C 	C 	0.7816	0.8468	-0	0.217
Mof_H 	H 	0.7712	0.8819	-0	-0.019
Mof_C 	C 	0.7442	0.8073	-0	-0.323
Mof_H 	H 	0.7089	0.8167	-0	0.137
Mof_C 	C 	0.5432	0.6121	-0	0.074
Mof_C 	C 	0.5264	0.6664	-0	-0.087
Mof_H 	H 	0.5481	0.6958	-0	0.045
Mof_O 	O 	0.1401	0.0764	-0	-0.679
Mof_C 	C 	0.2184	0.1532	-0	0.246
Mof_H 	H 	0.2288	0.1181	-0	-0.057
Mof_C 	C 	0.2558	0.1927	-0	-0.367
Mof_H 	H 	0.2911	0.1833	-0	0.135
Mof_C 	C 	0.4568	0.3879	-0	0.073
Mof_C 	C 	0.4736	0.3336	-0	-0.089
Mof_H 	H 	0.4519	0.3042	-0	0.038
Mof_O 	O 	0.8599	0.0764	-0	-0.672
Mof_C 	C 	0.7816	0.1532	-0	0.231
Mof_H 	H 	0.7712	0.1181	-0	-0.049
Mof_C 	C 	0.7442	0.1927	-0	-0.346
Mof_H 	H 	0.7089	0.1833	-0	0.13
Mof_C 	C 	0.5432	0.3879	-0	0.073
Mof_C 	C 	0.5264	0.3336	-0	-0.089
Mof_H 	H 	0.5481	0.3042	-0	0.039
Mof_O 	O 	0.1401	0.9236	-0	-0.629
Mof_C 	C 	0.2184	0.8468	-0	0.232
Mof_H 	H 	0.2288	0.8819	-0	-0.026
Mof_C 	C 	0.2558	0.8073	-0	-0.342
Mof_H 	H 	0.2911	0.8167	-0	0.142
Mof_C 	C 	0.4568	0.6121	-0	0.074
Mof_C 	C 	0.4736	0.6664	-0	-0.087
Mof_H 	H 	0.4519	0.6958	-0	0.045
Mof_O 	O 	0.9236	0	0.1401	-0.629
Mof_C 	C 	0.8468	1.53893e-33	0.2184	0.232
Mof_H 	H 	0.8819	0	0.2288	-0.026
Mof_C 	C 	0.8073	-3.07786e-33	0.2558	-0.342
Mof_H 	H 	0.8167	0	0.2911	0.142
Mof_C 	C 	0.6121	0	0.4568	0.074
Mof_C 	C 	0.6664	0	0.4736	-0.087
Mof_H 	H 	0.6958	0	0.4519	0.045
Mof_O 	O 	0.0764	0	0.8599	-0.672
Mof_C 	C 	0.1532	-6.15571e-33	0.7816	0.231
Mof_H 	H 	0.1181	0	0.7712	-0.049
Mof_C 	C 	0.1927	0	0.7442	-0.346
Mof_H 	H 	0.1833	0	0.7089	0.13
Mof_C 	C 	0.3879	6.15571e-33	0.5432	0.073
Mof_C 	C 	0.3336	0	0.5264	-0.089
Mof_H 	H 	0.3042	0	0.5481	0.039
Mof_O 	O 	0.0764	0	0.1401	-0.679
Mof_C 	C 	0.1532	1.53893e-33	0.2184	0.246
Mof_H 	H 	0.1181	0	0.2288	-0.057
Mof_C 	C 	0.1927	-3.07786e-33	0.2558	-0.367
Mof_H 	H 	0.1833	0	0.2911	0.135
Mof_C 	C 	0.3879	0	0.4568	0.073
Mof_C 	C 	0.3336	0	0.4736	-0.089
Mof_H 	H 	0.3042	0	0.4519	0.038
Mof_O 	O 	0.9236	0	0.8599	-0.624
Mof_C 	C 	0.8468	-6.15571e-33	0.7816	0.217
Mof_H 	H 	0.8819	0	0.7712	-0.019
Mof_C 	C 	0.8073	0	0.7442	-0.323
Mof_H 	H 	0.8167	0	0.7089	0.137
Mof_C 	C 	0.6121	6.15571e-33	0.5432	0.074
Mof_C 	C 	0.6664	0	0.5264	-0.087
Mof_H 	H 	0.6958	0	0.5481	0.045
Mof_O 	O 	-1.25247e-33	0.8599	0.0764	-0.672
Mof_C 	C 	-7.12023e-33	0.7816	0.1532	0.231
Mof_H 	H 	-1.09612e-33	0.7712	0.1181	-0.049
Mof_C 	C 	2.26144e-33	0.7442	0.1927	-0.346
Mof_H 	H 	5.30405e-33	0.7089	0.1833	0.13
Mof_C 	C 	7.61011e-33	0.5432	0.3879	0.073
Mof_C 	C 	7.40651e-33	0.5264	0.3336	-0.089
Mof_H 	H 	-1.93729e-33	0.5481	0.3042	0.039
Mof_O 	O 	1.57744e-32	0.1401	0.9236	-0.629
Mof_C 	C 	9.33071e-33	0.2184	0.8468	0.232
Mof_H 	H 	-2.84912e-33	0.2288	0.8819	-0.026
Mof_C 	C 	9.1826e-33	0.2558	0.8073	-0.342
Mof_H 	H 	3.06213e-33	0.2911	0.8167	0.142
Mof_C 	C 	-3.86071e-33	0.4568	0.6121	0.074
Mof_C 	C 	-3.65711e-33	0.4736	0.6664	-0.087
Mof_H 	H 	8.76455e-33	0.4519	0.6958	0.045
Mof_O 	O 	1.57744e-32	0.8599	0.9236	-0.624
Mof_C 	C 	3.17499e-33	0.7816	0.8468	0.217
Mof_H 	H 	3.3066e-33	0.7712	0.8819	-0.019
Mof_C 	C 	1.53383e-32	0.7442	0.8073	-0.323
Mof_H 	H 	3.06213e-33	0.7089	0.8167	0.137
Mof_C 	C 	2.29501e-33	0.5432	0.6121	0.074
Mof_C 	C 	2.4986e-33	0.5264	0.6664	-0.087
Mof_H 	H 	-3.54688e-33	0.5481	0.6958	0.045
Mof_O 	O 	2.86454e-34	0.1401	0.0764	-0.679
Mof_C 	C 	2.11334e-33	0.2184	0.1532	0.246
Mof_H 	H 	1.98173e-33	0.2288	0.1181	-0.057
Mof_C 	C 	-8.16419e-34	0.2558	0.1927	-0.367
Mof_H 	H 	-8.51664e-34	0.2911	0.1833	0.135
Mof_C 	C 	1.45439e-33	0.4568	0.3879	0.073
Mof_C 	C 	1.2508e-33	0.4736	0.3336	-0.089
Mof_H 	H 	-8.093e-33	0.4519	0.3042	0.038
Mof_C 	C 	0.8759	0.8759	-0	0.532
Mof_C 	C 	0.8341	0.8341	-0	-0.257
Mof_C 	C 	0.7564	0.7564	-0	0.28
Mof_C 	C 	0.717	0.717	-0	-0.258
Mof_C 	C 	0.5959	0.5959	-0	-0.132
Mof_C 	C 	0.637	0.637	-0	0.015
Mof_C 	C 	0.1241	0.1241	-0	0.551
Mof_C 	C 	0.1659	0.1659	-0	-0.308
Mof_C 	C 	0.2436	0.2436	-0	0.31
Mof_C 	C 	0.283	0.283	-0	-0.288
Mof_C 	C 	0.4041	0.4041	-0	-0.134
Mof_C 	C 	0.363	0.363	-0	0.019
Mof_C 	C 	0.1241	0.8759	-0	0.541
Mof_C 	C 	0.1659	0.8341	-0	-0.282
Mof_C 	C 	0.2436	0.7564	-0	0.294
Mof_C 	C 	0.283	0.717	-0	-0.273
Mof_C 	C 	0.4041	0.5959	-0	-0.133
Mof_C 	C 	0.363	0.637	-0	0.017
Mof_C 	C 	0.8759	0.1241	-0	0.541
Mof_C 	C 	0.8341	0.1659	-0	-0.282
Mof_C 	C 	0.7564	0.2436	-0	0.294
Mof_C 	C 	0.717	0.283	-0	-0.273
Mof_C 	C 	0.5959	0.4041	-0	-0.133
Mof_C 	C 	0.637	0.363	-0	0.017
Mof_C 	C 	3.2841e-33	0.8759	0.8759	0.532
Mof_C 	C 	-9.18405e-33	0.8341	0.8341	-0.257
Mof_C 	C 	2.83605e-33	0.7564	0.7564	0.28
Mof_C 	C 	-9.62311e-33	0.717	0.717	-0.258
Mof_C 	C 	8.38998e-33	0.5959	0.5959	-0.132
Mof_C 	C 	1.46998e-32	0.637	0.637	0.015
Mof_C 	C 	4.653e-34	0.1241	0.1241	0.551
Mof_C 	C 	6.22025e-34	0.1659	0.1659	-0.308
Mof_C 	C 	7.06907e-33	0.2436	0.2436	0.31
Mof_C 	C 	1.06108e-33	0.283	0.283	-0.288
Mof_C 	C 	1.51513e-33	0.4041	0.4041	-0.134
Mof_C 	C 	7.51675e-33	0.363	0.363	0.019
Mof_C 	C 	-2.87162e-33	0.1241	0.8759	0.541
Mof_C 	C 	-9.18405e-33	0.1659	0.8341	-0.282
Mof_C 	C 	8.99176e-33	0.2436	0.7564	0.294
Mof_C 	C 	-3.46739e-33	0.283	0.717	-0.273
Mof_C 	C 	2.23427e-33	0.4041	0.5959	-0.133
Mof_C 	C 	2.38837e-33	0.363	0.637	0.017
Mof_C 	C 	-4.15149e-33	0.8759	0.1241	0.541
Mof_C 	C 	-1.01505e-32	0.8341	0.1659	-0.282
Mof_C 	C 	7.06907e-33	0.7564	0.2436	0.294
Mof_C 	C 	-8.17249e-33	0.717	0.283	-0.273
Mof_C 	C 	4.59299e-33	0.5959	0.4041	-0.133
Mof_C 	C 	1.05946e-32	0.637	0.363	0.017
Mof_C 	C 	0.8759	0	0.8759	0.532
Mof_C 	C 	0.8341	-6.15571e-33	0.8341	-0.257
Mof_C 	C 	0.7564	0	0.7564	0.28
Mof_C 	C 	0.717	-6.15571e-33	0.717	-0.258
Mof_C 	C 	0.5959	6.15571e-33	0.5959	-0.132
Mof_C 	C 	0.637	6.15571e-33	0.637	0.015
Mof_C 	C 	0.1241	0	0.1241	0.551
Mof_C 	C 	0.1659	0	0.1659	-0.308
Mof_C 	C 	0.2436	3.07786e-33	0.2436	0.31
Mof_C 	C 	0.283	0	0.283	-0.288
Mof_C 	C 	0.4041	0	0.4041	-0.134
Mof_C 	C 	0.363	3.07786e-33	0.363	0.019
Mof_C 	C 	0.8759	0	0.1241	0.541
Mof_C 	C 	0.8341	0	0.1659	-0.282
Mof_C 	C 	0.7564	3.07786e-33	0.2436	0.294
Mof_C 	C 	0.717	0	0.283	-0.273
Mof_C 	C 	0.5959	0	0.4041	-0.133
Mof_C 	C 	0.637	3.07786e-33	0.363	0.017
Mof_C 	C 	0.1241	0	0.8759	0.541
Mof_C 	C 	0.1659	-6.15571e-33	0.8341	-0.282
Mof_C 	C 	0.2436	0	0.7564	0.294
Mof_C 	C 	0.283	-6.15571e-33	0.717	-0.273
Mof_C 	C 	0.4041	6.15571e-33	0.5959	-0.133
Mof_C 	C 	0.363	6.15571e-33	0.637	0.017
Mof_N 	N 	0.5801	0.5	-0	-0.293
Mof_N 	N 	0.4199	0.5	-0	-0.293
Mof_N 	N 	8.03041e-33	0.5801	0.5	-0.293
Mof_N 	N 	1.8747e-33	0.4199	0.5	-0.293
Mof_N 	N 	0.5	6.15571e-33	0.5801	-0.293
Mof_N 	N 	0.5	-3.07786e-33	0.4199	-0.293
Mof_N 	N 	0.5	0.5801	-0	-0.293
Mof_N 	N 	0.5	0.4199	-0	-0.293
Mof_N 	N 	0.5801	0	0.5	-0.293
Mof_N 	N 	0.4199	0	0.5	-0.293
Mof_N 	N 	1.57437e-33	0.5	0.4199	-0.293
Mof_N 	N 	2.17503e-33	0.5	0.5801	-0.293
_end
