# CIF file generated by openbabel 2.4.1, see http://openbabel.sf.net
data_I
_chemical_name_common 'image0'
_cell_length_a 10.8851
_cell_length_b 11.8615
_cell_length_c 13.9326
_cell_angle_alpha 90
_cell_angle_beta 90
_cell_angle_gamma 90
_space_group_name_H-M_alt 'P 1'
_space_group_name_Hall 'P 1'
loop_
    _symmetry_equiv_pos_as_xyz
    x,y,z
loop_
    _atom_site_label
    _atom_site_type_symbol
    _atom_site_fract_x
    _atom_site_fract_y
    _atom_site_fract_z
    _atom_site_occupancy
    N1      N    0.60660   0.87290   0.40570   1.000
    O1      O    0.90370   0.58190   0.37450   1.000
    O2      O    0.85030   0.64130   0.51670   1.000
    C1      C    0.61600   0.89600   0.30890   1.000
    H1      H    0.59280   0.96950   0.28270   1.000
    C2      C    0.56900   0.84900   0.31570   1.000
    H2      H    0.48280   0.85730   0.29600   1.000
    C3      C    0.74840   0.73510   0.28600   1.000
    H3      H    0.79740   0.69140   0.24590   1.000
    C4      C    0.66210   0.81060   0.25020   1.000
    H4      H    0.64650   0.81340   0.18090   1.000
    C5      C    0.68500   0.79920   0.43930   1.000
    H5      H    0.69320   0.79340   0.50550   1.000
    C6      C    0.84200   0.64630   0.42790   1.000
    C7      C    0.75670   0.72920   0.38280   1.000
    N2      N    0.39340   0.12710   0.40570   1.000
    O3      O    0.09630   0.41810   0.37450   1.000
    O4      O    0.14970   0.35870   0.51670   1.000
    C8      C    0.38400   0.10400   0.30890   1.000
    H6      H    0.40720   0.03050   0.28270   1.000
    C9      C    0.43100   0.15100   0.31570   1.000
    H7      H    0.51720   0.14270   0.29600   1.000
    C10     C    0.25160   0.26490   0.28600   1.000
    H8      H    0.20260   0.30860   0.24590   1.000
    C11     C    0.33790   0.18940   0.25020   1.000
    H9      H    0.35350   0.18660   0.18090   1.000
    C12     C    0.31500   0.20080   0.43930   1.000
    H10     H    0.30680   0.20660   0.50550   1.000
    C13     C    0.15800   0.35370   0.42790   1.000
    C14     C    0.24330   0.27080   0.38280   1.000
    N3      N    0.39340   0.87290   0.59430   1.000
    O5      O    0.09630   0.58190   0.62550   1.000
    O6      O    0.14970   0.64130   0.48330   1.000
    C15     C    0.38400   0.89600   0.69110   1.000
    H11     H    0.40720   0.96950   0.71730   1.000
    C16     C    0.43100   0.84900   0.68430   1.000
    H12     H    0.51720   0.85730   0.70400   1.000
    C17     C    0.25160   0.73510   0.71400   1.000
    H13     H    0.20260   0.69140   0.75410   1.000
    C18     C    0.33790   0.81060   0.74980   1.000
    H14     H    0.35350   0.81340   0.81910   1.000
    C19     C    0.31500   0.79920   0.56070   1.000
    H15     H    0.30680   0.79340   0.49450   1.000
    C20     C    0.15800   0.64630   0.57210   1.000
    C21     C    0.24330   0.72920   0.61720   1.000
    N4      N    0.60660   0.12710   0.59430   1.000
    O7      O    0.90370   0.41810   0.62550   1.000
    O8      O    0.85030   0.35870   0.48330   1.000
    C22     C    0.61600   0.10400   0.69110   1.000
    H16     H    0.59280   0.03050   0.71730   1.000
    C23     C    0.56900   0.15100   0.68430   1.000
    H17     H    0.48280   0.14270   0.70400   1.000
    C24     C    0.74840   0.26490   0.71400   1.000
    H18     H    0.79740   0.30860   0.75410   1.000
    C25     C    0.66210   0.18940   0.74980   1.000
    H19     H    0.64650   0.18660   0.81910   1.000
    C26     C    0.68500   0.20080   0.56070   1.000
    H20     H    0.69320   0.20660   0.49450   1.000
    C27     C    0.84200   0.35370   0.57210   1.000
    C28     C    0.75670   0.27080   0.61720   1.000
    Ag1     Ag   0.50000   0.00000   0.50000   1.000
    In1     In   0.00000   0.50000   0.50000   1.000
    N5      N    0.10660   0.37290   0.90570   1.000
    O9      O    0.40370   0.08190   0.87450   1.000
    O10     O    0.35030   0.14130   0.01670   1.000
    C29     C    0.11600   0.39600   0.80890   1.000
    H21     H    0.09280   0.46950   0.78270   1.000
    C30     C    0.06900   0.34900   0.81570   1.000
    H22     H    0.98280   0.35730   0.79600   1.000
    C31     C    0.24840   0.23510   0.78600   1.000
    H23     H    0.29740   0.19140   0.74590   1.000
    C32     C    0.16210   0.31060   0.75020   1.000
    H24     H    0.14650   0.31340   0.68090   1.000
    C33     C    0.18500   0.29920   0.93930   1.000
    H25     H    0.19320   0.29340   0.00550   1.000
    C34     C    0.34200   0.14630   0.92790   1.000
    C35     C    0.25670   0.22920   0.88280   1.000
    N6      N    0.89340   0.62710   0.90570   1.000
    O11     O    0.59630   0.91810   0.87450   1.000
    O12     O    0.64970   0.85870   0.01670   1.000
    C36     C    0.88400   0.60400   0.80890   1.000
    H26     H    0.90720   0.53050   0.78270   1.000
    C37     C    0.93100   0.65100   0.81570   1.000
    H27     H    0.01720   0.64270   0.79600   1.000
    C38     C    0.75160   0.76490   0.78600   1.000
    H28     H    0.70260   0.80860   0.74590   1.000
    C39     C    0.83790   0.68940   0.75020   1.000
    H29     H    0.85350   0.68660   0.68090   1.000
    C40     C    0.81500   0.70080   0.93930   1.000
    H30     H    0.80680   0.70660   0.00550   1.000
    C41     C    0.65800   0.85370   0.92790   1.000
    C42     C    0.74330   0.77080   0.88280   1.000
    N7      N    0.89340   0.37290   0.09430   1.000
    O13     O    0.59630   0.08190   0.12550   1.000
    O14     O    0.64970   0.14130   0.98330   1.000
    C43     C    0.88400   0.39600   0.19110   1.000
    H31     H    0.90720   0.46950   0.21730   1.000
    C44     C    0.93100   0.34900   0.18430   1.000
    H32     H    0.01720   0.35730   0.20400   1.000
    C45     C    0.75160   0.23510   0.21400   1.000
    H33     H    0.70260   0.19140   0.25410   1.000
    C46     C    0.83790   0.31060   0.24980   1.000
    H34     H    0.85350   0.31340   0.31910   1.000
    C47     C    0.81500   0.29920   0.06070   1.000
    H35     H    0.80680   0.29340   0.99450   1.000
    C48     C    0.65800   0.14630   0.07210   1.000
    C49     C    0.74330   0.22920   0.11720   1.000
    N8      N    0.10660   0.62710   0.09430   1.000
    O15     O    0.40370   0.91810   0.12550   1.000
    O16     O    0.35030   0.85870   0.98330   1.000
    C50     C    0.11600   0.60400   0.19110   1.000
    H36     H    0.09280   0.53050   0.21730   1.000
    C51     C    0.06900   0.65100   0.18430   1.000
    H37     H    0.98280   0.64270   0.20400   1.000
    C52     C    0.24840   0.76490   0.21400   1.000
    H38     H    0.29740   0.80860   0.25410   1.000
    C53     C    0.16210   0.68940   0.24980   1.000
    H39     H    0.14650   0.68660   0.31910   1.000
    C54     C    0.18500   0.70080   0.06070   1.000
    H40     H    0.19320   0.70660   0.99450   1.000
    C55     C    0.34200   0.85370   0.07210   1.000
    C56     C    0.25670   0.77080   0.11720   1.000
    Ag2     Ag   0.00000   0.50000   0.00000   1.000
    In2     In   0.50000   0.00000   0.00000   1.000
