data_functionalizedCrystal
_audit_creation_method	'EQeq! by Chris Wilmer'
_symmetry_space_group_name_H-M	'P1'
_symmetry_Int_Tables_number	1
_symmetry_cell_setting	triclinic
loop_
_symmetry_equiv_pos_as_xyz
  x,y,z
_cell_length_a	14.8155
_cell_length_b	14.8153
_cell_length_c	14.8153
_cell_angle_alpha	109.471
_cell_angle_beta	109.471
_cell_angle_gamma	109.471
loop_
_atom_site_label
_atom_site_type_symbol
_atom_site_fract_x
_atom_site_fract_y
_atom_site_fract_z
_atom_site_charge
Mof_Zn	Zn	0.25	0.5	0.75	1.162
Mof_Zn	Zn	0.75	0.5	0.25	1.162
Mof_Zn	Zn	0.25	0.75	0.5	1.162
Mof_Zn	Zn	0.5	0.75	0.25	1.162
Mof_Zn	Zn	0.5	0.25	0.75	1.162
Mof_Zn	Zn	0.75	0.25	0.5	1.162
Mof_H 	H 	0.50116	0.68042	0.96632	0.099
Mof_H 	H 	0.72018	0.56623	0.46367	-0.033
Mof_H 	H 	0.69261	0.20545	0.24646	0.291
Mof_H 	H 	0.75354	0.95899	0.44615	0.119
Mof_H 	H 	0.49884	0.46516	0.17926	0.277
Mof_H 	H 	0.22323	0.29794	0.75039	0.261
Mof_H 	H 	0.27982	0.74349	0.84605	-0.031
Mof_H 	H 	0.54755	0.47284	0.24961	0.259
Mof_H 	H 	0.30739	0.51284	0.55385	0.284
Mof_H 	H 	0.7141	0.03368	0.53484	0.187
Mof_H 	H 	0.54755	0.24961	0.47284	0.259
Mof_H 	H 	0.74349	0.84605	0.27982	-0.031
Mof_H 	H 	0.52716	0.77677	0.07471	0.112
Mof_H 	H 	0.79455	0.48716	0.04101	0.187
Mof_H 	H 	0.24646	0.69261	0.20545	0.292
Mof_H 	H 	0.55385	0.51284	0.30739	0.285
Mof_H 	H 	0.69261	0.24646	0.20545	0.292
Mof_H 	H 	0.84605	0.74349	0.27982	-0.03
Mof_H 	H 	0.82074	0.2859	0.31958	0.274
Mof_H 	H 	0.51284	0.55385	0.30739	0.285
Mof_H 	H 	0.75039	0.22323	0.29794	0.262
Mof_H 	H 	0.56623	0.46367	0.72018	-0.032
Mof_H 	H 	0.89744	0.15395	0.43377	-0.005
Mof_H 	H 	0.70206	0.92529	0.45245	0.143
Mof_H 	H 	0.15395	0.43377	0.89744	-0.005
Mof_H 	H 	0.29794	0.75039	0.22323	0.262
Mof_H 	H 	0.07471	0.77677	0.52716	0.112
Mof_H 	H 	0.56623	0.72018	0.46367	-0.032
Mof_H 	H 	0.55385	0.30739	0.51284	0.285
Mof_H 	H 	0.68042	0.50116	0.96632	0.1
Mof_H 	H 	0.75354	0.44615	0.95899	0.12
Mof_H 	H 	0.53633	0.25651	0.10256	-0.045
Mof_H 	H 	0.10256	0.53633	0.25651	-0.045
Mof_H 	H 	0.77677	0.52716	0.07471	0.112
Mof_H 	H 	0.03368	0.7141	0.53484	0.188
Mof_H 	H 	0.24646	0.20545	0.69261	0.292
Mof_H 	H 	0.74349	0.27982	0.84605	-0.03
Mof_H 	H 	0.95899	0.75354	0.44615	0.12
Mof_H 	H 	0.30739	0.55385	0.51284	0.285
Mof_H 	H 	0.82074	0.31958	0.2859	0.274
Mof_H 	H 	0.20545	0.69261	0.24646	0.292
Mof_H 	H 	0.68042	0.96632	0.50116	0.1
Mof_H 	H 	0.27982	0.84605	0.74349	-0.03
Mof_H 	H 	0.43377	0.89744	0.15395	-0.005
Mof_H 	H 	0.51284	0.30739	0.55385	0.285
Mof_H 	H 	0.20545	0.24646	0.69261	0.292
Mof_H 	H 	0.77677	0.07471	0.52716	0.112
Mof_H 	H 	0.31958	0.82074	0.2859	0.274
Mof_H 	H 	0.53484	0.7141	0.03368	0.188
Mof_H 	H 	0.45245	0.92529	0.70206	0.143
Mof_H 	H 	0.46367	0.56623	0.72018	-0.032
Mof_H 	H 	0.07471	0.52716	0.77677	0.112
Mof_H 	H 	0.03368	0.53484	0.7141	0.188
Mof_H 	H 	0.44615	0.95899	0.75354	0.12
Mof_H 	H 	0.95899	0.44615	0.75354	0.12
Mof_H 	H 	0.46367	0.72018	0.56623	-0.032
Mof_H 	H 	0.44615	0.75354	0.95899	0.12
Mof_H 	H 	0.31958	0.2859	0.82074	0.274
Mof_H 	H 	0.2859	0.31958	0.82074	0.274
Mof_H 	H 	0.45245	0.70206	0.92529	0.143
Mof_H 	H 	0.89744	0.43377	0.15395	-0.005
Mof_H 	H 	0.75039	0.29794	0.22323	0.262
Mof_H 	H 	0.52716	0.07471	0.77677	0.112
Mof_H 	H 	0.25651	0.53633	0.10256	-0.045
Mof_H 	H 	0.04101	0.79455	0.48716	0.187
Mof_H 	H 	0.50116	0.96632	0.68042	0.1
Mof_H 	H 	0.24961	0.54755	0.47284	0.26
Mof_H 	H 	0.92529	0.45245	0.70206	0.143
Mof_H 	H 	0.43377	0.15395	0.89744	-0.005
Mof_H 	H 	0.22323	0.75039	0.29794	0.262
Mof_H 	H 	0.49884	0.17926	0.46516	0.278
Mof_H 	H 	0.47284	0.54755	0.24961	0.26
Mof_H 	H 	0.46516	0.49884	0.17926	0.278
Mof_H 	H 	0.24961	0.47284	0.54755	0.26
Mof_H 	H 	0.17926	0.49884	0.46516	0.278
Mof_H 	H 	0.70206	0.45245	0.92529	0.143
Mof_H 	H 	0.7141	0.53484	0.03368	0.188
Mof_H 	H 	0.48716	0.79455	0.04101	0.187
Mof_H 	H 	0.92529	0.70206	0.45245	0.143
Mof_H 	H 	0.29794	0.22323	0.75039	0.262
Mof_H 	H 	0.72018	0.46367	0.56623	-0.032
Mof_H 	H 	0.47284	0.24961	0.54755	0.26
Mof_H 	H 	0.53633	0.10256	0.25651	-0.045
Mof_H 	H 	0.96632	0.50116	0.68042	0.1
Mof_H 	H 	0.46516	0.17926	0.49884	0.278
Mof_H 	H 	0.96632	0.68042	0.50116	0.1
Mof_H 	H 	0.48716	0.04101	0.79455	0.187
Mof_H 	H 	0.15395	0.89744	0.43377	-0.005
Mof_H 	H 	0.84605	0.27982	0.74349	-0.03
Mof_H 	H 	0.25651	0.10256	0.53633	-0.045
Mof_H 	H 	0.53484	0.03368	0.7141	0.188
Mof_H 	H 	0.10256	0.25651	0.53633	-0.045
Mof_H 	H 	0.17926	0.46516	0.49884	0.278
Mof_H 	H 	0.2859	0.82074	0.31958	0.274
Mof_H 	H 	0.04101	0.48716	0.79455	0.187
Mof_H 	H 	0.79455	0.04101	0.48716	0.187
Mof_C 	C 	0.52892	0.24918	0.52892	-1.736
Mof_C 	C 	0.75082	0.27974	0.27974	-1.743
Mof_C 	C 	0.6419	0	0.37546	0.334
Mof_C 	C 	0.6419	0.37546	-0	0.334
Mof_C 	C 	0.49958	0.44332	0.72405	-0.049
Mof_C 	C 	0.28074	0.05627	0.55669	0.019
Mof_C 	C 	0.3581	0.73356	0.3581	0.482
Mof_C 	C 	0.72405	0.44331	0.49958	-0.049
Mof_C 	C 	0.37546	0.6419	-0	0.334
Mof_C 	C 	0.94374	0.22448	0.50043	-0.111
Mof_C 	C 	0.62454	0.62454	0.26644	0.485
Mof_C 	C 	-3.40606e-17	0.6419	0.37546	0.334
Mof_C 	C 	0.73356	0.3581	0.3581	0.482
Mof_C 	C 	-4.54142e-17	0.47108	0.72026	-0.974
Mof_C 	C 	0.55669	0.05627	0.28074	0.019
Mof_C 	C 	0.50042	0.94373	0.22447	-0.111
Mof_C 	C 	0.72026	0	0.47108	-0.974
Mof_C 	C 	-2.27071e-17	0.37546	0.6419	0.334
Mof_C 	C 	0.27974	0.75082	0.27974	-1.743
Mof_C 	C 	0.3581	0.3581	0.73356	0.482
Mof_C 	C 	0.71926	0.27595	0.77552	-0.041
Mof_C 	C 	0.72026	0.47108	-0	-0.974
Mof_C 	C 	0.94374	0.50043	0.22448	-0.111
Mof_C 	C 	0.77553	0.71927	0.27595	-0.041
Mof_C 	C 	0.52892	0.52892	0.24918	-1.736
Mof_C 	C 	0.44331	0.72405	0.49957	-0.049
Mof_C 	C 	0.22447	0.50042	0.94373	-0.111
Mof_C 	C 	0.49958	0.72405	0.44332	-0.049
Mof_C 	C 	0.27595	0.77553	0.71926	-0.041
Mof_C 	C 	0.44331	0.49957	0.72405	-0.049
Mof_C 	C 	0.55669	0.28074	0.05627	0.019
Mof_C 	C 	0.50042	0.22447	0.94373	-0.111
Mof_C 	C 	0.71926	0.77552	0.27595	-0.041
Mof_C 	C 	0.47108	0	0.72026	-0.974
Mof_C 	C 	0.22447	0.94373	0.50042	-0.111
Mof_C 	C 	0.05626	0.55668	0.28073	0.019
Mof_C 	C 	0.26644	0.62454	0.62454	0.485
Mof_C 	C 	0.72405	0.49958	0.44331	-0.049
Mof_C 	C 	0.62454	0.26644	0.62454	0.485
Mof_C 	C 	-6.81212e-17	0.72026	0.47108	-0.974
Mof_C 	C 	0.77553	0.27595	0.71927	-0.041
Mof_C 	C 	0.05626	0.28073	0.55668	0.019
Mof_C 	C 	0.24918	0.52892	0.52892	-1.736
Mof_C 	C 	0.27974	0.27974	0.75082	-1.743
Mof_C 	C 	0.47108	0.72026	-0	-0.974
Mof_C 	C 	0.27595	0.71926	0.77553	-0.041
Mof_C 	C 	0.37546	0	0.6419	0.334
Mof_C 	C 	0.28074	0.55669	0.05627	0.019
Mof_N 	N 	0.62158	0.71429	0.26941	-0.378
Mof_N 	N 	0.09271	0.64784	0.37842	-0.358
Mof_N 	N 	0.62158	0.26941	0.71429	-0.378
Mof_N 	N 	0.44487	0.73058	0.35216	-0.382
Mof_N 	N 	0.26942	0.62159	0.71429	-0.378
Mof_N 	N 	0.71429	0.62158	0.26942	-0.378
Mof_N 	N 	0.28571	0.55513	0.90729	-0.353
Mof_N 	N 	0.71429	0.26942	0.62158	-0.378
Mof_N 	N 	0.26942	0.71429	0.62159	-0.378
Mof_N 	N 	0.73058	0.35216	0.44487	-0.382
Mof_N 	N 	0.35217	0.44488	0.73059	-0.382
Mof_N 	N 	0.55513	0.28571	0.9073	-0.353
Mof_N 	N 	0.90729	0.55512	0.28571	-0.353
Mof_N 	N 	0.64783	0.0927	0.37841	-0.358
Mof_N 	N 	0.09271	0.37842	0.64784	-0.358
Mof_N 	N 	0.37842	0.64784	0.09271	-0.358
Mof_N 	N 	0.35217	0.73059	0.44488	-0.382
Mof_N 	N 	0.37842	0.09271	0.64784	-0.358
Mof_N 	N 	0.90729	0.28571	0.55512	-0.353
Mof_N 	N 	0.64783	0.37841	0.0927	-0.358
Mof_N 	N 	0.55513	0.9073	0.28571	-0.353
Mof_N 	N 	0.73058	0.44487	0.35216	-0.382
Mof_N 	N 	0.28571	0.90729	0.55513	-0.353
Mof_N 	N 	0.44487	0.35216	0.73058	-0.382
_end
