data_functionalizedCrystal
_audit_creation_method	'EQeq! by Chris Wilmer'
_symmetry_space_group_name_H-M	'P1'
_symmetry_Int_Tables_number	1
_symmetry_cell_setting	triclinic
loop_
_symmetry_equiv_pos_as_xyz
  x,y,z
_cell_length_a	16.6366
_cell_length_b	16.6366
_cell_length_c	17.0848
_cell_angle_alpha	119.136
_cell_angle_beta	119.136
_cell_angle_gamma	90.0005
loop_
_atom_site_label
_atom_site_type_symbol
_atom_site_fract_x
_atom_site_fract_y
_atom_site_fract_z
_atom_site_charge
Mof_Fe	Fe	-0	0	-0	0.715
Mof_Co	Co	0.55231	0.55231	0.10462	1.139
Mof_Co	Co	0.44769	0.44769	0.89538	1.149
Mof_H 	H 	0.2359	0.6017	0.8376	0.007
Mof_H 	H 	0.6978	0.8495	0.4718	0.029
Mof_H 	H 	0.6132	0.756	0.287	0.015
Mof_H 	H 	0.774	0.6223	0.4718	0.029
Mof_H 	H 	0.2977	0.0748	-0	0.058
Mof_H 	H 	0.6132	0.531	0.287	0.015
Mof_H 	H 	0.469	0.3868	0.713	0.017
Mof_H 	H 	0.3022	0.1505	0.5282	0.028
Mof_H 	H 	0.8625	0.2999	0.1624	0.085
Mof_H 	H 	0.7001	0.1375	0.8376	0.082
Mof_H 	H 	0.7001	0.7001	0.8376	0.082
Mof_H 	H 	0.3983	0.7641	0.1624	0.012
Mof_H 	H 	0.0968	0.0968	0.364	0.053
Mof_H 	H 	0.8495	0.774	0.4718	0.029
Mof_H 	H 	0.2999	0.2999	0.1624	0.084
Mof_H 	H 	0.0748	0.7023	-0	0.057
Mof_H 	H 	0.756	0.6132	0.287	0.015
Mof_H 	H 	0.756	0.6738	0.287	0.015
Mof_H 	H 	0.2999	0.8625	0.1624	0.085
Mof_H 	H 	0.6978	0.6223	0.4718	0.029
Mof_H 	H 	0.1505	0.3022	0.5282	0.028
Mof_H 	H 	0.6017	0.6017	0.8376	0.008
Mof_H 	H 	0.8262	0.8262	0.8198	0.022
Mof_H 	H 	0.8262	0.9936	0.8198	0.023
Mof_H 	H 	0.226	0.3777	0.5282	0.028
Mof_H 	H 	0.0748	0.2977	-0	0.058
Mof_H 	H 	0.9252	0.7023	-0	0.055
Mof_H 	H 	0.3868	0.244	0.713	0.016
Mof_H 	H 	0.531	0.6738	0.287	0.015
Mof_H 	H 	0.1738	0.1738	0.1802	0.01
Mof_H 	H 	0.3777	0.3022	0.5282	0.029
Mof_H 	H 	0.244	0.3868	0.713	0.016
Mof_H 	H 	0.9936	0.8262	0.8198	0.023
Mof_H 	H 	0.6738	0.531	0.287	0.015
Mof_H 	H 	0.226	0.1505	0.5282	0.028
Mof_H 	H 	0.7023	0.0748	-0	0.057
Mof_H 	H 	0.2359	0.2359	0.8376	0.007
Mof_H 	H 	0.1738	0.0064	0.1802	0.008
Mof_H 	H 	0.6017	0.2359	0.8376	0.007
Mof_H 	H 	0.6738	0.756	0.287	0.015
Mof_H 	H 	0.3868	0.469	0.713	0.017
Mof_H 	H 	0.531	0.6132	0.287	0.015
Mof_H 	H 	0.0064	0.0064	0.1802	0.007
Mof_H 	H 	0.7328	0.7328	0.636	0.055
Mof_H 	H 	0.2672	0.0968	0.364	0.054
Mof_H 	H 	0.1375	0.1375	0.8376	0.081
Mof_H 	H 	0.1375	0.7001	0.8376	0.082
Mof_H 	H 	0.8625	0.8625	0.1624	0.085
Mof_H 	H 	0.7641	0.7641	0.1624	0.012
Mof_H 	H 	0.6223	0.6978	0.4718	0.029
Mof_H 	H 	0.3777	0.226	0.5282	0.028
Mof_H 	H 	0.7328	0.9032	0.636	0.056
Mof_H 	H 	0.6223	0.774	0.4718	0.029
Mof_H 	H 	0.9936	0.9936	0.8198	0.024
Mof_H 	H 	0.7641	0.3983	0.1624	0.012
Mof_H 	H 	0.0064	0.1738	0.1802	0.008
Mof_H 	H 	0.8495	0.6978	0.4718	0.029
Mof_H 	H 	0.9032	0.7328	0.636	0.056
Mof_H 	H 	0.9252	0.2977	-0	0.054
Mof_H 	H 	0.3983	0.3983	0.1624	0.012
Mof_H 	H 	0.0968	0.2672	0.364	0.054
Mof_H 	H 	0.7023	0.9252	-0	0.055
Mof_H 	H 	0.3022	0.3777	0.5282	0.029
Mof_H 	H 	0.1505	0.226	0.5282	0.028
Mof_H 	H 	0.774	0.8495	0.4718	0.029
Mof_H 	H 	0.469	0.3262	0.713	0.017
Mof_H 	H 	0.3262	0.469	0.713	0.017
Mof_H 	H 	0.2977	0.9252	-0	0.054
Mof_H 	H 	0.9032	0.9032	0.636	0.056
Mof_H 	H 	0.3262	0.244	0.713	0.016
Mof_H 	H 	0.244	0.3262	0.713	0.016
Mof_H 	H 	0.2672	0.2672	0.364	0.054
Mof_C 	C 	0.2087	0.2087	-0	0.093
Mof_C 	C 	0.67318	0.32682	-0	-0.184
Mof_C 	C 	0.24919	0.24919	0.90422	0.121
Mof_C 	C 	0.75081	0.75081	0.09578	0.089
Mof_C 	C 	0.784	0.7391	0.4356	-0.032
Mof_C 	C 	0.7913	0.2087	-0	0.093
Mof_C 	C 	0.7482	0.9592	-0	-0.082
Mof_C 	C 	0.2532	0.2532	0.5064	0.015
Mof_C 	C 	0.80922	0.80922	0.09582	-0.164
Mof_C 	C 	0.6096	0.6096	-0	0.352
Mof_C 	C 	0.0656	0.16962	-0	0.106
Mof_C 	C 	0.5981	0.6442	0.3252	0.009
Mof_C 	C 	0.65503	0.24919	0.90422	0.121
Mof_C 	C 	0.14567	0.85433	-0	-0.137
Mof_C 	C 	0.83038	0.0656	-0	0.107
Mof_C 	C 	0.0408	0.2518	-0	-0.097
Mof_C 	C 	0.784	0.6965	0.4356	-0.031
Mof_C 	C 	0.7271	0.681	0.3252	0.009
Mof_C 	C 	0.3035	0.3484	0.5644	-0.031
Mof_C 	C 	0.3484	0.2609	0.5644	-0.03
Mof_C 	C 	0.3904	0.3904	-0	0.352
Mof_C 	C 	0.7134	0.19078	0.90418	-0.132
Mof_C 	C 	0.19078	0.7134	0.90418	-0.132
Mof_C 	C 	0.75081	0.34497	0.09578	0.089
Mof_C 	C 	0.0656	0.83038	-0	0.107
Mof_C 	C 	0.216	0.3035	0.5644	-0.031
Mof_C 	C 	0.6442	0.5981	0.3252	0.009
Mof_C 	C 	0.0605	0.1579	0.2184	0.051
Mof_C 	C 	0.2518	0.9592	-0	-0.079
Mof_C 	C 	0.67318	0.67318	-0	-0.184
Mof_C 	C 	0.1141	0.2135	0.3276	-0.099
Mof_C 	C 	0.16962	0.9344	-0	0.107
Mof_C 	C 	0.32682	0.67318	-0	-0.184
Mof_C 	C 	0.5981	0.681	0.3252	0.009
Mof_C 	C 	0.6965	0.6516	0.4356	-0.031
Mof_C 	C 	0.0408	0.7482	-0	-0.094
Mof_C 	C 	0.14567	0.14567	-0	-0.138
Mof_C 	C 	0.8859	0.8859	0.6724	-0.095
Mof_C 	C 	0.2609	0.3484	0.5644	-0.03
Mof_C 	C 	0.80922	0.2866	0.09582	-0.165
Mof_C 	C 	0.7865	0.7865	0.6724	-0.095
Mof_C 	C 	0.85433	0.14567	-0	-0.137
Mof_C 	C 	0.6516	0.6965	0.4356	-0.031
Mof_C 	C 	0.9395	0.9395	0.7816	0.049
Mof_C 	C 	0.2866	0.80922	0.09582	-0.165
Mof_C 	C 	0.2729	0.3558	0.6748	0.008
Mof_C 	C 	0.2135	0.2135	0.3276	-0.099
Mof_C 	C 	0.2729	0.319	0.6748	0.008
Mof_C 	C 	0.83038	0.9344	-0	0.106
Mof_C 	C 	0.3558	0.2729	0.6748	0.008
Mof_C 	C 	0.8421	0.9395	0.7816	0.05
Mof_C 	C 	0.3904	0.6096	-0	0.352
Mof_C 	C 	0.7482	0.0408	-0	-0.094
Mof_C 	C 	0.4019	0.319	0.6748	0.008
Mof_C 	C 	0.319	0.4019	0.6748	0.008
Mof_C 	C 	0.2087	0.7913	-0	0.093
Mof_C 	C 	0.9592	0.2518	-0	-0.079
Mof_C 	C 	0.681	0.7271	0.3252	0.009
Mof_C 	C 	0.19078	0.19078	0.90418	-0.131
Mof_C 	C 	0.9344	0.83038	-0	0.106
Mof_C 	C 	0.6096	0.3904	-0	0.352
Mof_C 	C 	0.4019	0.3558	0.6748	0.008
Mof_C 	C 	0.1579	0.0605	0.2184	0.051
Mof_C 	C 	0.65503	0.65503	0.90422	0.121
Mof_C 	C 	0.2518	0.0408	-0	-0.097
Mof_C 	C 	0.7865	0.8859	0.6724	-0.096
Mof_C 	C 	0.34497	0.34497	0.09578	0.088
Mof_C 	C 	0.34497	0.75081	0.09578	0.089
Mof_C 	C 	0.6965	0.784	0.4356	-0.031
Mof_C 	C 	0.319	0.2729	0.6748	0.008
Mof_C 	C 	0.85433	0.85433	-0	-0.135
Mof_C 	C 	0.7271	0.6442	0.3252	0.009
Mof_C 	C 	0.1141	0.1141	0.3276	-0.099
Mof_C 	C 	0.3558	0.4019	0.6748	0.008
Mof_C 	C 	0.8421	0.8421	0.7816	0.049
Mof_C 	C 	0.681	0.5981	0.3252	0.009
Mof_C 	C 	0.2135	0.1141	0.3276	-0.099
Mof_C 	C 	0.32682	0.32682	-0	-0.185
Mof_C 	C 	0.6442	0.7271	0.3252	0.009
Mof_C 	C 	0.7134	0.7134	0.90418	-0.131
Mof_C 	C 	0.2609	0.216	0.5644	-0.03
Mof_C 	C 	0.6516	0.7391	0.4356	-0.032
Mof_C 	C 	0.9395	0.8421	0.7816	0.05
Mof_C 	C 	0.3484	0.3035	0.5644	-0.031
Mof_C 	C 	0.2866	0.2866	0.09582	-0.165
Mof_C 	C 	0.8065	0.8065	0.613	0.088
Mof_C 	C 	0.0605	0.0605	0.2184	0.05
Mof_C 	C 	0.24919	0.65503	0.90422	0.121
Mof_C 	C 	0.7468	0.7468	0.4936	0.019
Mof_C 	C 	0.9592	0.7482	-0	-0.082
Mof_C 	C 	0.1935	0.1935	0.387	0.094
Mof_C 	C 	0.8859	0.7865	0.6724	-0.096
Mof_C 	C 	0.7391	0.784	0.4356	-0.032
Mof_C 	C 	0.216	0.2609	0.5644	-0.03
Mof_C 	C 	0.3035	0.216	0.5644	-0.031
Mof_C 	C 	0.1579	0.1579	0.2184	0.05
Mof_C 	C 	0.7391	0.6516	0.4356	-0.032
Mof_C 	C 	0.16962	0.0656	-0	0.106
Mof_C 	C 	0.9344	0.16962	-0	0.107
Mof_C 	C 	0.7913	0.7913	-0	0.093
Mof_N 	N 	0.9189	0.9189	0.8378	-0.198
Mof_N 	N 	0.0811	0.0811	0.1622	-0.211
Mof_N 	N 	0.1193	0	-0	-0.22
Mof_N 	N 	-0	0.1193	-0	-0.22
Mof_N 	N 	0.8807	0	-0	-0.217
Mof_N 	N 	0.635	0.635	0.27	-0.226
Mof_N 	N 	0.365	0.365	0.73	-0.226
Mof_N 	N 	1.01176e-21	0.8807	-0	-0.217
Mof_O 	O 	0.37	0.53994	0.90994	-0.424
Mof_O 	O 	0.37	0.37	0.90994	-0.425
Mof_O 	O 	0.53994	0.53994	0.90994	-0.424
Mof_O 	O 	0.46006	0.63	0.09006	-0.453
Mof_O 	O 	0.46006	0.46006	0.09006	-0.453
Mof_O 	O 	0.53994	0.37	0.90994	-0.424
Mof_O 	O 	0.63	0.63	0.09006	-0.452
Mof_O 	O 	0.63	0.46006	0.09006	-0.453
_end
