data_functionalizedCrystal
_audit_creation_method	'EQeq! by Chris Wilmer'
_symmetry_space_group_name_H-M	'P1'
_symmetry_Int_Tables_number	1
_symmetry_cell_setting	triclinic
loop_
_symmetry_equiv_pos_as_xyz
  x,y,z
_cell_length_a	9.746
_cell_length_b	15.285
_cell_length_c	18.656
_cell_angle_alpha	107.339
_cell_angle_beta	99.509
_cell_angle_gamma	92.536
loop_
_atom_site_label
_atom_site_type_symbol
_atom_site_fract_x
_atom_site_fract_y
_atom_site_fract_z
_atom_site_charge
Mof_Ag	Ag	0.9197	0.3504	0.7758	0.198
Mof_Ag	Ag	0.21777	0.25773	0.74888	0.42
Mof_Ag	Ag	0.5343	0.1483	0.7369	0.179
Mof_C 	C 	0.6388	0.4796	0.5084	0.016
Mof_C 	C 	0.533	0.4138	0.506	0.011
Mof_C 	C 	0.393	0.4336	0.4964	0.017
Mof_C 	C 	0.791	0.4575	0.5177	-0.088
Mof_H 	H 	0.7967	0.3957	0.485	0.058
Mof_H 	H 	0.8467	0.5001	0.502	0.073
Mof_C 	C 	0.8808	0.3989	0.628	0.107
Mof_H 	H 	0.8824	0.3374	0.6005	-0.02
Mof_C 	C 	0.8955	0.5241	0.7162	0.097
Mof_H 	H 	0.912	0.5668	0.7649	-0.014
Mof_C 	C 	0.5666	0.3204	0.5129	-0.073
Mof_H 	H 	0.5007	0.2731	0.4749	0.047
Mof_H 	H 	0.6595	0.3095	0.5021	0.051
Mof_C 	C 	0.5492	0.2357	0.6086	0.074
Mof_H 	H 	0.5395	0.176	0.5751	-0.023
Mof_C 	C 	0.5696	0.3515	0.7069	0.086
Mof_H 	H 	0.5769	0.3868	0.7577	-0.031
Mof_C 	C 	0.2777	0.3617	0.4926	-0.083
Mof_H 	H 	0.1927	0.3707	0.4614	0.065
Mof_H 	H 	0.3038	0.301	0.4683	0.055
Mof_C 	C 	0.2369	0.2987	0.5979	0.099
Mof_H 	H 	0.2391	0.2367	0.5721	-0.027
Mof_C 	C 	0.2249	0.424	0.6809	0.102
Mof_H 	H 	0.2174	0.4664	0.7273	-0.022
Mof_C 	C 	0.1062	0.066	0.0031	0.017
Mof_C 	C 	0.9691	0.0893	0.003	0.011
Mof_C 	C 	0.8615	0.0236	0.0004	0.017
Mof_C 	C 	0.221	0.137	0.0041	-0.087
Mof_H 	H 	0.2024	0.1977	0.0336	0.055
Mof_H 	H 	0.31	0.1236	0.0283	0.068
Mof_C 	C 	0.225	0.2061	0.897	0.094
Mof_H 	H 	0.2232	0.2675	0.9248	-0.028
Mof_C 	C 	0.2285	0.0831	0.8093	0.101
Mof_H 	H 	0.2297	0.0427	0.7611	-0.028
Mof_C 	C 	0.9367	0.1865	0.0062	-0.074
Mof_H 	H 	0.8534	0.2002	0.028	0.05
Mof_H 	H 	0.0137	0.2302	0.0389	0.047
Mof_C 	C 	0.9031	0.2731	0.9101	0.081
Mof_H 	H 	0.9093	0.332	0.9446	-0.026
Mof_C 	C 	0.8801	0.1621	0.8108	0.094
Mof_H 	H 	0.8662	0.1288	0.7591	-0.032
Mof_C 	C 	0.7131	0.0511	0.0032	-0.091
Mof_H 	H 	0.6621	0.0091	0.0218	0.077
Mof_H 	H 	0.7175	0.1126	0.0389	0.06
Mof_C 	C 	0.6064	0.1181	0.9	0.107
Mof_H 	H 	0.6223	0.1803	0.9282	-0.015
Mof_C 	C 	0.5472	0.9938	0.8122	0.101
Mof_H 	H 	0.51	0.9522	0.7644	-0.015
Mof_N 	N 	0.9118	0.4328	0.703	-0.203
Mof_N 	N 	0.8471	0.4645	0.5972	-0.087
Mof_N 	N 	0.8544	0.546	0.6537	-0.097
Mof_N 	N 	0.5539	0.2582	0.6836	-0.212
Mof_N 	N 	0.5607	0.313	0.5891	-0.088
Mof_N 	N 	0.5734	0.3877	0.6519	-0.092
Mof_N 	N 	0.2197	0.332	0.6693	-0.218
Mof_N 	N 	0.2507	0.3666	0.5683	-0.088
Mof_N 	N 	0.2416	0.4477	0.6207	-0.096
Mof_N 	N 	0.2247	0.1749	0.8227	-0.222
Mof_N 	N 	0.2284	0.1362	0.9259	-0.087
Mof_N 	N 	0.2301	0.0557	0.8695	-0.098
Mof_N 	N 	0.8819	0.2537	0.8354	-0.216
Mof_N 	N 	0.9145	0.1964	0.9291	-0.09
Mof_N 	N 	0.8991	0.1226	0.8642	-0.093
Mof_N 	N 	0.5498	0.0859	0.8268	-0.197
Mof_N 	N 	0.6376	0.0496	0.9278	-0.086
Mof_N 	N 	0.6012	0.9681	0.8708	-0.1
Mof_Ag	Ag	0.5163	0.1719	0.7512	0.221
Mof_Ag	Ag	0.9157	0.3531	0.7793	0.191
Mof_Ag	Ag	0.0803	0.6496	0.2242	0.198
Mof_Ag	Ag	0.78223	0.74227	0.25112	0.42
Mof_Ag	Ag	0.4657	0.8517	0.2631	0.179
Mof_C 	C 	0.3612	0.5204	0.4916	0.016
Mof_C 	C 	0.467	0.5862	0.494	0.011
Mof_C 	C 	0.607	0.5664	0.5036	0.017
Mof_C 	C 	0.209	0.5425	0.4823	-0.088
Mof_H 	H 	0.2033	0.6043	0.515	0.058
Mof_H 	H 	0.1533	0.4999	0.498	0.073
Mof_C 	C 	0.1192	0.6011	0.372	0.107
Mof_H 	H 	0.1176	0.6626	0.3995	-0.02
Mof_C 	C 	0.1045	0.4759	0.2838	0.097
Mof_H 	H 	0.088	0.4332	0.2351	-0.014
Mof_C 	C 	0.4334	0.6796	0.4871	-0.073
Mof_H 	H 	0.4993	0.7269	0.5251	0.047
Mof_H 	H 	0.3405	0.6905	0.4979	0.051
Mof_C 	C 	0.4508	0.7643	0.3914	0.074
Mof_H 	H 	0.4605	0.824	0.4249	-0.023
Mof_C 	C 	0.4304	0.6485	0.2931	0.086
Mof_H 	H 	0.4231	0.6132	0.2423	-0.031
Mof_C 	C 	0.7223	0.6383	0.5074	-0.083
Mof_H 	H 	0.8073	0.6293	0.5386	0.065
Mof_H 	H 	0.6962	0.699	0.5317	0.055
Mof_C 	C 	0.7631	0.7013	0.4021	0.099
Mof_H 	H 	0.7609	0.7633	0.4279	-0.027
Mof_C 	C 	0.7751	0.576	0.3191	0.102
Mof_H 	H 	0.7826	0.5336	0.2727	-0.022
Mof_C 	C 	0.8938	0.934	0.9969	0.017
Mof_C 	C 	0.0309	0.9107	0.997	0.011
Mof_C 	C 	0.1385	0.9764	0.9996	0.017
Mof_C 	C 	0.779	0.863	0.9959	-0.087
Mof_H 	H 	0.7976	0.8023	0.9664	0.055
Mof_H 	H 	0.69	0.8764	0.9717	0.068
Mof_C 	C 	0.775	0.7939	0.103	0.094
Mof_H 	H 	0.7768	0.7325	0.0752	-0.028
Mof_C 	C 	0.7715	0.9169	0.1907	0.101
Mof_H 	H 	0.7703	0.9573	0.2389	-0.028
Mof_C 	C 	0.0633	0.8135	0.9938	-0.074
Mof_H 	H 	0.1466	0.7998	0.972	0.05
Mof_H 	H 	0.9863	0.7698	0.9611	0.047
Mof_C 	C 	0.0969	0.7269	0.0899	0.081
Mof_H 	H 	0.0907	0.668	0.0554	-0.026
Mof_C 	C 	0.1199	0.8379	0.1892	0.094
Mof_H 	H 	0.1338	0.8712	0.2409	-0.032
Mof_C 	C 	0.2869	0.9489	0.9968	-0.091
Mof_H 	H 	0.3379	0.9909	0.9782	0.077
Mof_H 	H 	0.2825	0.8874	0.9611	0.06
Mof_C 	C 	0.3936	0.8819	0.1	0.107
Mof_H 	H 	0.3777	0.8197	0.0718	-0.015
Mof_C 	C 	0.4528	0.0062	0.1878	0.101
Mof_H 	H 	0.49	0.0478	0.2356	-0.015
Mof_N 	N 	0.0882	0.5672	0.297	-0.203
Mof_N 	N 	0.1529	0.5355	0.4028	-0.087
Mof_N 	N 	0.1456	0.454	0.3463	-0.097
Mof_N 	N 	0.4461	0.7418	0.3164	-0.212
Mof_N 	N 	0.4393	0.687	0.4109	-0.088
Mof_N 	N 	0.4266	0.6123	0.3481	-0.092
Mof_N 	N 	0.7803	0.668	0.3307	-0.218
Mof_N 	N 	0.7493	0.6334	0.4317	-0.088
Mof_N 	N 	0.7584	0.5523	0.3793	-0.096
Mof_N 	N 	0.7753	0.8251	0.1773	-0.222
Mof_N 	N 	0.7716	0.8638	0.0741	-0.087
Mof_N 	N 	0.7699	0.9443	0.1305	-0.098
Mof_N 	N 	0.1181	0.7463	0.1646	-0.216
Mof_N 	N 	0.0855	0.8036	0.0709	-0.09
Mof_N 	N 	0.1009	0.8774	0.1358	-0.093
Mof_N 	N 	0.4502	0.9141	0.1732	-0.197
Mof_N 	N 	0.3624	0.9504	0.0722	-0.086
Mof_N 	N 	0.3988	0.0319	0.1292	-0.1
Mof_Ag	Ag	0.4837	0.8281	0.2488	0.221
Mof_Ag	Ag	0.0843	0.6469	0.2207	0.191
_end
