data_functionalizedCrystal
_audit_creation_method	'EQeq! by Chris Wilmer'
_symmetry_space_group_name_H-M	'P1'
_symmetry_Int_Tables_number	1
_symmetry_cell_setting	triclinic
loop_
_symmetry_equiv_pos_as_xyz
  x,y,z
_cell_length_a	13.967
_cell_length_b	15.48
_cell_length_c	20.893
_cell_angle_alpha	89.948
_cell_angle_beta	83.096
_cell_angle_gamma	89.209
loop_
_atom_site_label
_atom_site_type_symbol
_atom_site_fract_x
_atom_site_fract_y
_atom_site_fract_z
_atom_site_charge
Mof_C 	C 	0.7917	0.2391	0.5268	0.021
Mof_C 	C 	0.8565	0.1694	0.5328	-0.012
Mof_H 	H 	0.9004	0.152	0.4967	0.025
Mof_C 	C 	0.8565	0.1267	0.5903	-0.056
Mof_H 	H 	0.9042	0.0833	0.5943	0.04
Mof_C 	C 	0.7886	0.145	0.643	-0.005
Mof_C 	C 	0.7198	0.21	0.6395	-0.015
Mof_H 	H 	0.6728	0.2231	0.675	0.03
Mof_C 	C 	0.7225	0.2563	0.5801	-0.04
Mof_H 	H 	0.6757	0.3005	0.5765	0.034
Mof_C 	C 	0.791	0.0889	0.7046	0.02
Mof_C 	C 	0.8489	0.0172	0.7062	-0.029
Mof_H 	H 	0.8879	0.9985	0.6683	0.032
Mof_C 	C 	0.8507	0.9723	0.7626	0.094
Mof_H 	H 	0.8909	0.9225	0.7637	0.003
Mof_C 	C 	0.7945	0.9992	0.8173	-0.156
Mof_C 	C 	0.7366	0.071	0.8157	0.734
Mof_C 	C 	0.7348	0.1158	0.7593	0.094
Mof_H 	H 	0.6945	0.1657	0.7582	0.05
Mof_C 	C 	0.7997	0.2293	0.4061	0.022
Mof_C 	C 	0.8694	0.2403	0.3542	-0.055
Mof_H 	H 	0.9185	0.2817	0.3563	0.043
Mof_C 	C 	0.8679	0.1911	0.2994	-0.025
Mof_H 	H 	0.9159	0.1987	0.2636	0.065
Mof_C 	C 	0.7967	0.1309	0.2964	-0.025
Mof_C 	C 	0.7269	0.1199	0.3483	0.005
Mof_H 	H 	0.6779	0.0785	0.3462	0.029
Mof_C 	C 	0.7285	0.1692	0.4031	-0.069
Mof_H 	H 	0.6804	0.1616	0.4388	0.052
Mof_C 	C 	0.7886	0.0779	0.2359	0.181
Mof_C 	C 	0.8739	0.0507	0.2005	-0.238
Mof_H 	H 	0.9341	0.0641	0.2147	0.112
Mof_C 	C 	0.8709	0.0043	0.1451	0.175
Mof_H 	H 	0.9301	0.988	0.1206	0
Mof_C 	C 	0.786	0.98	0.1233	-0.297
Mof_C 	C 	0.7021	0.0083	0.1591	0.484
Mof_C 	C 	0.7014	0.0576	0.2151	-0.345
Mof_H 	H 	0.6423	0.0766	0.2385	0.178
Mof_C 	C 	0.7906	0.4235	0.4022	0.018
Mof_C 	C 	0.8567	0.4876	0.387	-0.067
Mof_H 	H 	0.9012	0.5017	0.4163	0.046
Mof_C 	C 	0.8585	0.5312	0.3296	-0.005
Mof_H 	H 	0.9042	0.5754	0.3191	0.031
Mof_C 	C 	0.7942	0.5107	0.2873	-0.018
Mof_C 	C 	0.7281	0.4467	0.3024	-0.004
Mof_H 	H 	0.6836	0.4325	0.2731	0.031
Mof_C 	C 	0.7263	0.4031	0.3598	-0.056
Mof_H 	H 	0.6806	0.3588	0.3703	0.04
Mof_C 	C 	0.7977	0.5576	0.224	0.195
Mof_C 	C 	0.8859	0.5775	0.1878	-0.366
Mof_H 	H 	0.9448	0.5597	0.2024	0.196
Mof_C 	C 	0.8868	0.6229	0.1313	0.526
Mof_C 	C 	0.8011	0.6489	0.1072	-0.311
Mof_C 	C 	0.7178	0.6254	0.1414	0.215
Mof_H 	H 	0.6589	0.6404	0.1254	-0.011
Mof_C 	C 	0.7138	0.5804	0.1989	-0.252
Mof_H 	H 	0.6531	0.5652	0.2213	0.116
Mof_C 	C 	0.8121	0.4291	0.5218	0.022
Mof_C 	C 	0.7466	0.4946	0.5362	-0.075
Mof_H 	H 	0.6993	0.5068	0.5082	0.049
Mof_C 	C 	0.7493	0.5427	0.5907	0.006
Mof_H 	H 	0.7037	0.5883	0.6007	0.024
Mof_C 	C 	0.8173	0.5252	0.6308	-0.043
Mof_C 	C 	0.8827	0.4596	0.6165	0.003
Mof_H 	H 	0.93	0.4474	0.6444	0.026
Mof_C 	C 	0.8801	0.4116	0.562	-0.067
Mof_H 	H 	0.9256	0.3659	0.552	0.049
Mof_C 	C 	0.8169	0.5753	0.6923	0.196
Mof_C 	C 	0.7327	0.6005	0.7309	-0.255
Mof_H 	H 	0.6719	0.584	0.7191	0.114
Mof_C 	C 	0.7365	0.649	0.7859	0.219
Mof_H 	H 	0.6778	0.6663	0.8105	-0.02
Mof_C 	C 	0.8222	0.6733	0.8064	-0.34
Mof_C 	C 	0.9064	0.6445	0.7707	0.535
Mof_C 	C 	0.9047	0.5968	0.7152	-0.377
Mof_H 	H 	0.9639	0.5781	0.6918	0.174
Mof_C 	C 	0.7916	0.2864	0.4668	-0.033
Mof_C 	C 	0.7962	0.3724	0.4637	-0.043
Mof_C 	C 	0.7972	0.9487	0.8812	0.465
Mof_C 	C 	0.7894	0.9287	0.0623	0.484
Mof_C 	C 	0.8012	0.7067	0.0489	0.486
Mof_C 	C 	0.8201	0.7257	0.8664	0.505
Mof_C 	C 	0.1103	0.7909	0.9126	0.08
Mof_H 	H 	0.0831	0.7639	0.8783	0.036
Mof_C 	C 	0.2097	0.7838	0.9142	-0.104
Mof_H 	H 	0.2486	0.7497	0.8832	0.077
Mof_C 	C 	0.2509	0.8278	0.9622	0.06
Mof_C 	C 	0.1886	0.8739	0.007	-0.113
Mof_H 	H 	0.2131	0.9035	0.0412	0.104
Mof_C 	C 	0.091	0.8765	0.0018	0.092
Mof_H 	H 	0.0497	0.9104	0.0316	0.01
Mof_C 	C 	0.5096	0.7549	0.9442	0.098
Mof_H 	H 	0.5474	0.7074	0.9263	0.004
Mof_C 	C 	0.413	0.7566	0.9406	-0.129
Mof_H 	H 	0.3845	0.7097	0.9209	0.084
Mof_C 	C 	0.3561	0.8246	0.965	0.093
Mof_C 	C 	0.3999	0.8892	0.9962	-0.115
Mof_H 	H 	0.3633	0.9372	0.0144	0.137
Mof_C 	C 	0.4984	0.8829	0.0007	0.131
Mof_H 	H 	0.5274	0.9254	0.0246	0.042
Mof_F 	F 	0.6153	0.9938	0.13965	-0.451
Mof_F 	F 	0.975	0.6538	0.1049	-0.2
Mof_F 	F 	0.9926	0.6596	0.7881	-0.511
Mof_N 	N 	0.0528	0.8332	0.95639	-0.242
Mof_N 	N 	0.5529	0.8199	0.97278	-0.247
Mof_O 	O 	0.8787	0.9244	0.89249	-0.487
Mof_O 	O 	0.7196	0.9296	0.91147	-0.426
Mof_O 	O 	0.8689	0.916	0.03133	-0.488
Mof_O 	O 	0.71	0.9013	0.04735	-0.437
Mof_O 	O 	0.881	0.7364	0.02385	-0.431
Mof_O 	O 	0.7218	0.7217	0.03062	-0.471
Mof_O 	O 	0.8983	0.745	0.88614	-0.448
Mof_O 	O 	0.7392	0.7495	0.89322	-0.495
Mof_Zn	Zn	0.90769	0.83162	0.95736	1.217
Mof_Zn	Zn	0.69778	0.82237	0.97173	1.218
Mof_F 	F 	0.6223	0.039	0.8472	-0.215
Mof_C 	C 	0.7824	0.2339	0.5319	0.009
Mof_C 	C 	0.8675	0.2239	0.5582	-0.064
Mof_H 	H 	0.9253	0.2474	0.537	0.045
Mof_C 	C 	0.8691	0.1798	0.6153	0.004
Mof_H 	H 	0.9279	0.1729	0.6334	0.023
Mof_C 	C 	0.7854	0.1457	0.646	0.003
Mof_C 	C 	0.7003	0.1557	0.6198	-0.045
Mof_H 	H 	0.6425	0.1322	0.641	0.047
Mof_C 	C 	0.6987	0.1998	0.5627	-0.031
Mof_H 	H 	0.6399	0.2067	0.5445	0.035
Mof_C 	C 	0.7864	0.1019	0.7093	0.043
Mof_C 	C 	0.8731	0.0629	0.723	-0.106
Mof_H 	H 	0.93	0.0684	0.6935	0.057
Mof_C 	C 	0.8757	0.0157	0.7804	-0.031
Mof_H 	H 	0.9344	0.9894	0.7896	0.038
Mof_C 	C 	0.7915	0.0076	0.8241	-0.079
Mof_C 	C 	0.7048	0.0466	0.8104	-0.231
Mof_C 	C 	0.7022	0.0937	0.753	-0.361
Mof_H 	H 	0.6435	0.1201	0.7438	0.178
Mof_C 	C 	0.773	0.2304	0.4094	0.024
Mof_C 	C 	0.8297	0.1545	0.4022	-0.04
Mof_H 	H 	0.8678	0.1377	0.4349	0.038
Mof_C 	C 	0.83	0.1036	0.3466	-0.025
Mof_H 	H 	0.8683	0.0523	0.3417	0.034
Mof_C 	C 	0.7737	0.1285	0.2981	-0.013
Mof_C 	C 	0.717	0.2043	0.3053	-0.04
Mof_H 	H 	0.6789	0.2211	0.2726	0.047
Mof_C 	C 	0.7167	0.2553	0.361	-0.03
Mof_H 	H 	0.6783	0.3066	0.3658	0.026
Mof_C 	C 	0.796	0.4193	0.4041	0.029
Mof_C 	C 	0.8466	0.3843	0.3468	-0.027
Mof_H 	H 	0.8803	0.3308	0.3481	0.044
Mof_C 	C 	0.8467	0.4293	0.2876	-0.059
Mof_H 	H 	0.8805	0.4059	0.2492	0.108
Mof_C 	C 	0.7963	0.5093	0.2857	-0.015
Mof_C 	C 	0.7457	0.5443	0.343	-0.034
Mof_H 	H 	0.712	0.5979	0.3418	0.04
Mof_C 	C 	0.7456	0.4993	0.4022	-0.042
Mof_H 	H 	0.7117	0.5227	0.4406	0.037
Mof_C 	C 	0.7984	0.4212	0.5241	0.032
Mof_C 	C 	0.7293	0.4124	0.5809	-0.04
Mof_H 	H 	0.6784	0.3722	0.5812	0.035
Mof_C 	C 	0.7375	0.4647	0.6371	-0.036
Mof_H 	H 	0.692	0.4589	0.6744	0.04
Mof_C 	C 	0.8147	0.5258	0.6366	-0.011
Mof_C 	C 	0.8838	0.5346	0.5798	-0.028
Mof_H 	H 	0.9347	0.5748	0.5794	0.033
Mof_C 	C 	0.8757	0.4823	0.5236	-0.041
Mof_H 	H 	0.9211	0.4881	0.4862	0.035
Mof_F 	F 	0.9697	0.6228	0.0932	-0.282
Mof_F 	F 	0.6781	0.0953	0.8664	-0.427
Mof_C 	C 	0.2083	0.7609	0.4732	0.02
Mof_C 	C 	0.1435	0.8306	0.4672	-0.013
Mof_H 	H 	0.0996	0.848	0.5033	0.024
Mof_C 	C 	0.1435	0.8733	0.4097	-0.057
Mof_H 	H 	0.0958	0.9167	0.4057	0.039
Mof_C 	C 	0.2114	0.855	0.357	-0.006
Mof_C 	C 	0.2802	0.79	0.3605	-0.015
Mof_H 	H 	0.3272	0.7769	0.325	0.03
Mof_C 	C 	0.2775	0.7437	0.4199	-0.04
Mof_H 	H 	0.3243	0.6995	0.4235	0.034
Mof_C 	C 	0.209	0.9111	0.2954	0.02
Mof_C 	C 	0.1511	0.9828	0.2938	-0.029
Mof_H 	H 	0.1121	0.0015	0.3317	0.032
Mof_C 	C 	0.1493	0.0277	0.2374	0.094
Mof_H 	H 	0.1091	0.0775	0.2363	0.003
Mof_C 	C 	0.2055	0.0008	0.1827	-0.156
Mof_C 	C 	0.2634	0.929	0.1843	0.734
Mof_C 	C 	0.2652	0.8842	0.2407	0.094
Mof_H 	H 	0.3055	0.8343	0.2418	0.05
Mof_C 	C 	0.2003	0.7707	0.5939	0.022
Mof_C 	C 	0.1306	0.7597	0.6458	-0.055
Mof_H 	H 	0.0815	0.7183	0.6437	0.043
Mof_C 	C 	0.1321	0.8089	0.7006	-0.025
Mof_H 	H 	0.0841	0.8013	0.7364	0.065
Mof_C 	C 	0.2033	0.8691	0.7036	-0.025
Mof_C 	C 	0.2731	0.8801	0.6517	0.005
Mof_H 	H 	0.3221	0.9215	0.6538	0.029
Mof_C 	C 	0.2715	0.8308	0.5969	-0.069
Mof_H 	H 	0.3196	0.8384	0.5612	0.052
Mof_C 	C 	0.2114	0.9221	0.7641	0.181
Mof_C 	C 	0.1261	0.9493	0.7995	-0.238
Mof_H 	H 	0.0659	0.9359	0.7853	0.112
Mof_C 	C 	0.1291	0.9957	0.8549	0.175
Mof_H 	H 	0.0699	0.012	0.8794	0
Mof_C 	C 	0.214	0.02	0.8767	-0.297
Mof_C 	C 	0.2979	0.9917	0.8409	0.484
Mof_C 	C 	0.2986	0.9424	0.7849	-0.345
Mof_H 	H 	0.3577	0.9234	0.7615	0.178
Mof_C 	C 	0.2094	0.5765	0.5978	0.018
Mof_C 	C 	0.1433	0.5124	0.613	-0.067
Mof_H 	H 	0.0988	0.4983	0.5837	0.046
Mof_C 	C 	0.1415	0.4688	0.6704	-0.005
Mof_H 	H 	0.0958	0.4246	0.6809	0.031
Mof_C 	C 	0.2058	0.4893	0.7127	-0.018
Mof_C 	C 	0.2719	0.5533	0.6976	-0.004
Mof_H 	H 	0.3164	0.5675	0.7269	0.031
Mof_C 	C 	0.2737	0.5969	0.6402	-0.056
Mof_H 	H 	0.3194	0.6412	0.6297	0.04
Mof_C 	C 	0.2023	0.4424	0.776	0.195
Mof_C 	C 	0.1141	0.4225	0.8122	-0.366
Mof_H 	H 	0.0552	0.4403	0.7976	0.196
Mof_C 	C 	0.1132	0.3771	0.8687	0.526
Mof_C 	C 	0.1989	0.3511	0.8928	-0.311
Mof_C 	C 	0.2822	0.3746	0.8586	0.215
Mof_H 	H 	0.3411	0.3596	0.8746	-0.011
Mof_C 	C 	0.2862	0.4196	0.8011	-0.252
Mof_H 	H 	0.3469	0.4348	0.7787	0.116
Mof_C 	C 	0.1879	0.5709	0.4782	0.022
Mof_C 	C 	0.2534	0.5054	0.4638	-0.075
Mof_H 	H 	0.3007	0.4932	0.4918	0.049
Mof_C 	C 	0.2507	0.4573	0.4093	0.006
Mof_H 	H 	0.2963	0.4117	0.3993	0.024
Mof_C 	C 	0.1827	0.4748	0.3692	-0.043
Mof_C 	C 	0.1173	0.5404	0.3835	0.003
Mof_H 	H 	0.07	0.5526	0.3556	0.026
Mof_C 	C 	0.1199	0.5884	0.438	-0.067
Mof_H 	H 	0.0744	0.6341	0.448	0.049
Mof_C 	C 	0.1831	0.4247	0.3077	0.196
Mof_C 	C 	0.2673	0.3995	0.2691	-0.255
Mof_H 	H 	0.3281	0.416	0.2809	0.114
Mof_C 	C 	0.2635	0.351	0.2141	0.219
Mof_H 	H 	0.3222	0.3337	0.1895	-0.02
Mof_C 	C 	0.1778	0.3267	0.1936	-0.34
Mof_C 	C 	0.0936	0.3555	0.2293	0.535
Mof_C 	C 	0.0953	0.4032	0.2848	-0.377
Mof_H 	H 	0.0361	0.4219	0.3082	0.174
Mof_C 	C 	0.2084	0.7136	0.5332	-0.033
Mof_C 	C 	0.2038	0.6276	0.5363	-0.043
Mof_C 	C 	0.2028	0.0513	0.1188	0.465
Mof_C 	C 	0.2106	0.0713	0.9377	0.484
Mof_C 	C 	0.1988	0.2933	0.9511	0.486
Mof_C 	C 	0.1799	0.2743	0.1336	0.505
Mof_C 	C 	0.8897	0.2091	0.0874	0.08
Mof_H 	H 	0.9169	0.2361	0.1217	0.036
Mof_C 	C 	0.7903	0.2162	0.0858	-0.104
Mof_H 	H 	0.7514	0.2503	0.1168	0.077
Mof_C 	C 	0.7491	0.1722	0.0378	0.06
Mof_C 	C 	0.8114	0.1261	0.993	-0.113
Mof_H 	H 	0.7869	0.0965	0.9588	0.104
Mof_C 	C 	0.909	0.1235	0.9982	0.092
Mof_H 	H 	0.9503	0.0896	0.9684	0.01
Mof_C 	C 	0.4904	0.2451	0.0558	0.098
Mof_H 	H 	0.4526	0.2926	0.0737	0.004
Mof_C 	C 	0.587	0.2434	0.0594	-0.129
Mof_H 	H 	0.6155	0.2903	0.0791	0.084
Mof_C 	C 	0.6439	0.1754	0.035	0.093
Mof_C 	C 	0.6001	0.1108	0.0038	-0.115
Mof_H 	H 	0.6367	0.0628	0.9856	0.137
Mof_C 	C 	0.5016	0.1171	0.9993	0.131
Mof_H 	H 	0.4726	0.0746	0.9754	0.042
Mof_F 	F 	0.3847	0.0062	0.86035	-0.451
Mof_F 	F 	0.025	0.3462	0.8951	-0.2
Mof_F 	F 	0.0074	0.3404	0.2119	-0.511
Mof_N 	N 	0.9472	0.1668	0.04361	-0.242
Mof_N 	N 	0.4471	0.1801	0.02722	-0.247
Mof_O 	O 	0.1213	0.0756	0.10751	-0.487
Mof_O 	O 	0.2804	0.0704	0.08853	-0.426
Mof_O 	O 	0.1311	0.084	0.96867	-0.488
Mof_O 	O 	0.29	0.0987	0.95265	-0.437
Mof_O 	O 	0.119	0.2636	0.97615	-0.431
Mof_O 	O 	0.2782	0.2783	0.96938	-0.471
Mof_O 	O 	0.1017	0.255	0.11386	-0.448
Mof_O 	O 	0.2608	0.2505	0.10678	-0.495
Mof_Zn	Zn	0.09231	0.16838	0.04264	1.217
Mof_Zn	Zn	0.30222	0.17763	0.02827	1.218
Mof_F 	F 	0.3777	0.961	0.1528	-0.215
Mof_C 	C 	0.2176	0.7661	0.4681	0.009
Mof_C 	C 	0.1325	0.7761	0.4418	-0.064
Mof_H 	H 	0.0747	0.7526	0.463	0.045
Mof_C 	C 	0.1309	0.8202	0.3847	0.004
Mof_H 	H 	0.0721	0.8271	0.3666	0.023
Mof_C 	C 	0.2146	0.8543	0.354	0.003
Mof_C 	C 	0.2997	0.8443	0.3802	-0.045
Mof_H 	H 	0.3575	0.8678	0.359	0.047
Mof_C 	C 	0.3013	0.8002	0.4373	-0.031
Mof_H 	H 	0.3601	0.7933	0.4555	0.035
Mof_C 	C 	0.2136	0.8981	0.2907	0.043
Mof_C 	C 	0.1269	0.9371	0.277	-0.106
Mof_H 	H 	0.07	0.9316	0.3065	0.057
Mof_C 	C 	0.1243	0.9843	0.2196	-0.031
Mof_H 	H 	0.0656	0.0106	0.2104	0.038
Mof_C 	C 	0.2085	0.9924	0.1759	-0.079
Mof_C 	C 	0.2952	0.9534	0.1896	-0.231
Mof_C 	C 	0.2978	0.9063	0.247	-0.361
Mof_H 	H 	0.3565	0.8799	0.2562	0.178
Mof_C 	C 	0.227	0.7696	0.5906	0.024
Mof_C 	C 	0.1703	0.8455	0.5978	-0.04
Mof_H 	H 	0.1322	0.8623	0.5651	0.038
Mof_C 	C 	0.17	0.8964	0.6534	-0.025
Mof_H 	H 	0.1317	0.9477	0.6583	0.034
Mof_C 	C 	0.2263	0.8715	0.7019	-0.013
Mof_C 	C 	0.283	0.7957	0.6947	-0.04
Mof_H 	H 	0.3211	0.7789	0.7274	0.047
Mof_C 	C 	0.2833	0.7447	0.639	-0.03
Mof_H 	H 	0.3217	0.6934	0.6342	0.026
Mof_C 	C 	0.204	0.5807	0.5959	0.029
Mof_C 	C 	0.1534	0.6157	0.6532	-0.027
Mof_H 	H 	0.1197	0.6692	0.6519	0.044
Mof_C 	C 	0.1533	0.5707	0.7124	-0.059
Mof_H 	H 	0.1195	0.5941	0.7508	0.108
Mof_C 	C 	0.2037	0.4907	0.7143	-0.015
Mof_C 	C 	0.2543	0.4557	0.657	-0.034
Mof_H 	H 	0.288	0.4021	0.6582	0.04
Mof_C 	C 	0.2544	0.5007	0.5978	-0.042
Mof_H 	H 	0.2883	0.4773	0.5594	0.037
Mof_C 	C 	0.2016	0.5788	0.4759	0.032
Mof_C 	C 	0.2707	0.5876	0.4191	-0.04
Mof_H 	H 	0.3216	0.6278	0.4188	0.035
Mof_C 	C 	0.2625	0.5353	0.3629	-0.036
Mof_H 	H 	0.308	0.5411	0.3256	0.04
Mof_C 	C 	0.1853	0.4742	0.3634	-0.011
Mof_C 	C 	0.1162	0.4654	0.4202	-0.028
Mof_H 	H 	0.0653	0.4252	0.4206	0.033
Mof_C 	C 	0.1243	0.5177	0.4764	-0.041
Mof_H 	H 	0.0789	0.5119	0.5138	0.035
Mof_F 	F 	0.0303	0.3772	0.9068	-0.282
Mof_F 	F 	0.3219	0.9047	0.1336	-0.427
_end
