# CIF file generated by openbabel 2.4.1, see http://openbabel.sf.net
data_I
_chemical_name_common 'image0'
_cell_length_a 18.5696
_cell_length_b 18.5696
_cell_length_c 12.0128
_cell_angle_alpha 90
_cell_angle_beta 90
_cell_angle_gamma 120
_space_group_name_H-M_alt 'P 1'
_space_group_name_Hall 'P 1'
loop_
    _symmetry_equiv_pos_as_xyz
    x,y,z
loop_
    _atom_site_label
    _atom_site_type_symbol
    _atom_site_fract_x
    _atom_site_fract_y
    _atom_site_fract_z
    _atom_site_occupancy
    C1      C    0.06340   0.98650   0.38650   1.000
    H1      H    0.10660   0.03410   0.42260   1.000
    C2      C    0.06430   0.91180   0.38740   1.000
    C3      C    0.12930   0.90350   0.44840   1.000
    C4      C    0.11370   0.39860   0.35770   1.000
    C5      C    0.07450   0.43260   0.43460   1.000
    C6      C    0.11070   0.51990   0.43200   1.000
    H2      H    0.15610   0.55250   0.38380   1.000
    C7      C    0.07950   0.55720   0.50000   1.000
    C8      C    0.11880   0.65000   0.50350   1.000
    C9      C    0.01180   0.51130   0.56700   1.000
    H3      H    0.99030   0.53860   0.61160   1.000
    C10     C    0.97440   0.42450   0.57100   1.000
    C11     C    0.89950   0.37480   0.64110   1.000
    C12     C    0.00870   0.38730   0.50300   1.000
    H4      H    0.98500   0.32860   0.50570   1.000
    O1      O    0.17930   0.69270   0.43600   1.000
    O2      O    0.09530   0.68560   0.56890   1.000
    O3      O    0.87150   0.41220   0.70120   1.000
    O4      O    0.86280   0.29580   0.63600   1.000
    C13     C    0.08350   0.43940   0.43990   1.000
    C14     C    0.11590   0.52590   0.44700   1.000
    H5      H    0.15970   0.56240   0.39940   1.000
    C15     C    0.08400   0.55780   0.52400   1.000
    C16     C    0.12010   0.65040   0.53500   1.000
    C17     C    0.01880   0.50560   0.59300   1.000
    H6      H    0.99640   0.52850   0.64390   1.000
    C18     C    0.98550   0.41960   0.58800   1.000
    C19     C    0.91490   0.36270   0.66110   1.000
    C20     C    0.02100   0.38830   0.51000   1.000
    H7      H    0.00070   0.33010   0.50770   1.000
    O5      O    0.17600   0.69490   0.46000   1.000
    O6      O    0.10360   0.68240   0.61200   1.000
    O7      O    0.89900   0.39310   0.74590   1.000
    O8      O    0.87550   0.28480   0.64100   1.000
    Co1     Co   0.21128   0.80887   0.48647   1.000
    O9      O    0.93420   0.07300   0.30890   1.000
    O10     O    0.09170   0.32260   0.36690   1.000
    O11     O    0.16210   0.44470   0.28500   1.000
    O12     O    0.12330   0.83280   0.44440   1.000
    O13     O    0.18640   0.96620   0.49610   1.000
    C21     C    0.01350   0.07690   0.05317   1.000
    H8      H    0.96590   0.07250   0.08927   1.000
    C22     C    0.08820   0.15250   0.05407   1.000
    C23     C    0.09650   0.22580   0.11507   1.000
    C24     C    0.60140   0.71510   0.02437   1.000
    C25     C    0.56740   0.64190   0.10127   1.000
    C26     C    0.48010   0.59080   0.09867   1.000
    H9      H    0.44750   0.60360   0.05047   1.000
    C27     C    0.44280   0.52230   0.16667   1.000
    C28     C    0.35000   0.46880   0.17017   1.000
    C29     C    0.48870   0.50050   0.23367   1.000
    H10     H    0.46140   0.45170   0.27827   1.000
    C30     C    0.57550   0.54990   0.23767   1.000
    C31     C    0.62520   0.52470   0.30777   1.000
    C32     C    0.61270   0.62140   0.16967   1.000
    H11     H    0.67140   0.65640   0.17237   1.000
    O14     O    0.30730   0.48660   0.10267   1.000
    O15     O    0.31440   0.40970   0.23557   1.000
    O16     O    0.58780   0.45930   0.36787   1.000
    O17     O    0.70420   0.56700   0.30267   1.000
    C33     C    0.56060   0.64410   0.10657   1.000
    C34     C    0.47410   0.59000   0.11367   1.000
    H12     H    0.43760   0.59730   0.06607   1.000
    C35     C    0.44220   0.52620   0.19067   1.000
    C36     C    0.34960   0.46970   0.20167   1.000
    C37     C    0.49440   0.51320   0.25967   1.000
    H13     H    0.47150   0.46790   0.31057   1.000
    C38     C    0.58040   0.56590   0.25467   1.000
    C39     C    0.63730   0.55220   0.32777   1.000
    C40     C    0.61170   0.63270   0.17667   1.000
    H14     H    0.66990   0.67060   0.17437   1.000
    O18     O    0.30510   0.48110   0.12667   1.000
    O19     O    0.31760   0.42120   0.27867   1.000
    O20     O    0.60690   0.50590   0.41257   1.000
    O21     O    0.71520   0.59070   0.30767   1.000
    Co2     Co   0.19113   0.40241   0.15314   1.000
    O22     O    0.92700   0.86120   0.97557   1.000
    O23     O    0.67740   0.76910   0.03357   1.000
    O24     O    0.55530   0.71740   0.95167   1.000
    O25     O    0.16720   0.29050   0.11107   1.000
    O26     O    0.03380   0.22020   0.16277   1.000
    C41     C    0.92310   0.93660   0.71983   1.000
    H15     H    0.92750   0.89340   0.75593   1.000
    C42     C    0.84750   0.93570   0.72073   1.000
    C43     C    0.77420   0.87070   0.78173   1.000
    C44     C    0.28490   0.88630   0.69103   1.000
    C45     C    0.35810   0.92550   0.76793   1.000
    C46     C    0.40920   0.88930   0.76533   1.000
    H16     H    0.39640   0.84390   0.71713   1.000
    C47     C    0.47770   0.92050   0.83333   1.000
    C48     C    0.53120   0.88120   0.83683   1.000
    C49     C    0.49950   0.98820   0.90033   1.000
    H17     H    0.54830   0.00970   0.94493   1.000
    C50     C    0.45010   0.02560   0.90433   1.000
    C51     C    0.47530   0.10050   0.97443   1.000
    C52     C    0.37860   0.99130   0.83633   1.000
    H18     H    0.34360   0.01500   0.83903   1.000
    O27     O    0.51340   0.82070   0.76933   1.000
    O28     O    0.59030   0.90470   0.90223   1.000
    O29     O    0.54070   0.12850   0.03453   1.000
    O30     O    0.43300   0.13720   0.96933   1.000
    C53     C    0.35590   0.91650   0.77323   1.000
    C54     C    0.41000   0.88410   0.78033   1.000
    H19     H    0.40270   0.84030   0.73273   1.000
    C55     C    0.47380   0.91600   0.85733   1.000
    C56     C    0.53030   0.87990   0.86833   1.000
    C57     C    0.48680   0.98120   0.92633   1.000
    H20     H    0.53210   0.00360   0.97723   1.000
    C58     C    0.43410   0.01450   0.92133   1.000
    C59     C    0.44780   0.08510   0.99443   1.000
    C60     C    0.36730   0.97900   0.84333   1.000
    H21     H    0.32940   0.99930   0.84103   1.000
    O31     O    0.51890   0.82400   0.79333   1.000
    O32     O    0.57880   0.89640   0.94533   1.000
    O33     O    0.49410   0.10100   0.07923   1.000
    O34     O    0.40930   0.12450   0.97433   1.000
    Co3     Co   0.59759   0.78872   0.81980   1.000
    O35     O    0.13880   0.06580   0.64223   1.000
    O36     O    0.23090   0.90830   0.70023   1.000
    O37     O    0.28260   0.83790   0.61833   1.000
    O38     O    0.70950   0.87670   0.77773   1.000
    O39     O    0.77980   0.81360   0.82943   1.000
    C61     C    0.98650   0.06340   0.61350   1.000
    H22     H    0.03410   0.10660   0.57740   1.000
    C62     C    0.91180   0.06430   0.61260   1.000
    C63     C    0.90350   0.12930   0.55160   1.000
    C64     C    0.39860   0.11370   0.64230   1.000
    C65     C    0.43260   0.07450   0.56540   1.000
    C66     C    0.51990   0.11070   0.56800   1.000
    H23     H    0.55250   0.15610   0.61620   1.000
    C67     C    0.55720   0.07950   0.50000   1.000
    C68     C    0.65000   0.11880   0.49650   1.000
    C69     C    0.51130   0.01180   0.43300   1.000
    H24     H    0.53860   0.99030   0.38840   1.000
    C70     C    0.42450   0.97440   0.42900   1.000
    C71     C    0.37480   0.89950   0.35890   1.000
    C72     C    0.38730   0.00870   0.49700   1.000
    H25     H    0.32860   0.98500   0.49430   1.000
    O40     O    0.69270   0.17930   0.56400   1.000
    O41     O    0.68560   0.09530   0.43110   1.000
    O42     O    0.41220   0.87150   0.29880   1.000
    O43     O    0.29580   0.86280   0.36400   1.000
    C73     C    0.43940   0.08350   0.56010   1.000
    C74     C    0.52590   0.11590   0.55300   1.000
    H26     H    0.56240   0.15970   0.60060   1.000
    C75     C    0.55780   0.08400   0.47600   1.000
    C76     C    0.65040   0.12010   0.46500   1.000
    C77     C    0.50560   0.01880   0.40700   1.000
    H27     H    0.52850   0.99640   0.35610   1.000
    C78     C    0.41960   0.98550   0.41200   1.000
    C79     C    0.36270   0.91490   0.33890   1.000
    C80     C    0.38830   0.02100   0.49000   1.000
    H28     H    0.33010   0.00070   0.49230   1.000
    O44     O    0.69490   0.17600   0.54000   1.000
    O45     O    0.68240   0.10360   0.38800   1.000
    O46     O    0.39310   0.89900   0.25410   1.000
    O47     O    0.28480   0.87550   0.35900   1.000
    Co4     Co   0.80887   0.21128   0.51353   1.000
    O48     O    0.07300   0.93420   0.69110   1.000
    O49     O    0.32260   0.09170   0.63310   1.000
    O50     O    0.44470   0.16210   0.71500   1.000
    O51     O    0.83280   0.12330   0.55560   1.000
    O52     O    0.96620   0.18640   0.50390   1.000
    C81     C    0.07690   0.01350   0.94683   1.000
    H29     H    0.07250   0.96590   0.91073   1.000
    C82     C    0.15250   0.08820   0.94593   1.000
    C83     C    0.22580   0.09650   0.88493   1.000
    C84     C    0.71510   0.60140   0.97563   1.000
    C85     C    0.64190   0.56740   0.89873   1.000
    C86     C    0.59080   0.48010   0.90133   1.000
    H30     H    0.60360   0.44750   0.94953   1.000
    C87     C    0.52230   0.44280   0.83333   1.000
    C88     C    0.46880   0.35000   0.82983   1.000
    C89     C    0.50050   0.48870   0.76633   1.000
    H31     H    0.45170   0.46140   0.72173   1.000
    C90     C    0.54990   0.57550   0.76233   1.000
    C91     C    0.52470   0.62520   0.69223   1.000
    C92     C    0.62140   0.61270   0.83033   1.000
    H32     H    0.65640   0.67140   0.82763   1.000
    O53     O    0.48660   0.30730   0.89733   1.000
    O54     O    0.40970   0.31440   0.76443   1.000
    O55     O    0.45930   0.58780   0.63213   1.000
    O56     O    0.56700   0.70420   0.69733   1.000
    C93     C    0.64410   0.56060   0.89343   1.000
    C94     C    0.59000   0.47410   0.88633   1.000
    H33     H    0.59730   0.43760   0.93393   1.000
    C95     C    0.52620   0.44220   0.80933   1.000
    C96     C    0.46970   0.34960   0.79833   1.000
    C97     C    0.51320   0.49440   0.74033   1.000
    H34     H    0.46790   0.47150   0.68943   1.000
    C98     C    0.56590   0.58040   0.74533   1.000
    C99     C    0.55220   0.63730   0.67223   1.000
    C100    C    0.63270   0.61170   0.82333   1.000
    H35     H    0.67060   0.66990   0.82563   1.000
    O57     O    0.48110   0.30510   0.87333   1.000
    O58     O    0.42120   0.31760   0.72133   1.000
    O59     O    0.50590   0.60690   0.58743   1.000
    O60     O    0.59070   0.71520   0.69233   1.000
    Co5     Co   0.40241   0.19113   0.84686   1.000
    O61     O    0.86120   0.92700   0.02443   1.000
    O62     O    0.76910   0.67740   0.96643   1.000
    O63     O    0.71740   0.55530   0.04833   1.000
    O64     O    0.29050   0.16720   0.88893   1.000
    O65     O    0.22020   0.03380   0.83723   1.000
    C101    C    0.93660   0.92310   0.28017   1.000
    H36     H    0.89340   0.92750   0.24407   1.000
    C102    C    0.93570   0.84750   0.27927   1.000
    C103    C    0.87070   0.77420   0.21827   1.000
    C104    C    0.88630   0.28490   0.30897   1.000
    C105    C    0.92550   0.35810   0.23207   1.000
    C106    C    0.88930   0.40920   0.23467   1.000
    H37     H    0.84390   0.39640   0.28287   1.000
    C107    C    0.92050   0.47770   0.16667   1.000
    C108    C    0.88120   0.53120   0.16317   1.000
    C109    C    0.98820   0.49950   0.09967   1.000
    H38     H    0.00970   0.54830   0.05507   1.000
    C110    C    0.02560   0.45010   0.09567   1.000
    C111    C    0.10050   0.47530   0.02557   1.000
    C112    C    0.99130   0.37860   0.16367   1.000
    H39     H    0.01500   0.34360   0.16097   1.000
    O66     O    0.82070   0.51340   0.23067   1.000
    O67     O    0.90470   0.59030   0.09777   1.000
    O68     O    0.12850   0.54070   0.96547   1.000
    O69     O    0.13720   0.43300   0.03067   1.000
    C113    C    0.91650   0.35590   0.22677   1.000
    C114    C    0.88410   0.41000   0.21967   1.000
    H40     H    0.84030   0.40270   0.26727   1.000
    C115    C    0.91600   0.47380   0.14267   1.000
    C116    C    0.87990   0.53030   0.13167   1.000
    C117    C    0.98120   0.48680   0.07367   1.000
    H41     H    0.00360   0.53210   0.02277   1.000
    C118    C    0.01450   0.43410   0.07867   1.000
    C119    C    0.08510   0.44780   0.00557   1.000
    C120    C    0.97900   0.36730   0.15667   1.000
    H42     H    0.99930   0.32940   0.15897   1.000
    O70     O    0.82400   0.51890   0.20667   1.000
    O71     O    0.89640   0.57880   0.05467   1.000
    O72     O    0.10100   0.49410   0.92077   1.000
    O73     O    0.12450   0.40930   0.02567   1.000
    Co6     Co   0.78872   0.59759   0.18020   1.000
    O74     O    0.06580   0.13880   0.35777   1.000
    O75     O    0.90830   0.23090   0.29977   1.000
    O76     O    0.83790   0.28260   0.38167   1.000
    O77     O    0.87670   0.70950   0.22227   1.000
    O78     O    0.81360   0.77980   0.17057   1.000
    C121    C    0.00000   0.07210   0.33333   1.000
    C122    C    0.00000   0.99170   0.33333   1.000
    C123    C    0.00000   0.84240   0.33333   1.000
    H43     H    0.00000   0.79130   0.33333   1.000
    Co7     Co   0.00000   0.20515   0.33333   1.000
    C124    C    0.92790   0.92790   0.00000   1.000
    C125    C    0.00830   0.00830   0.00000   1.000
    C126    C    0.15760   0.15760   0.00000   1.000
    H44     H    0.20870   0.20870   0.00000   1.000
    Co8     Co   0.79485   0.79485   0.00000   1.000
    C127    C    0.07210   0.00000   0.66667   1.000
    C128    C    0.99170   0.00000   0.66667   1.000
    C129    C    0.84240   0.00000   0.66667   1.000
    H45     H    0.79130   0.00000   0.66667   1.000
    Co9     Co   0.20515   0.00000   0.66667   1.000
