data_functionalizedCrystal
_audit_creation_method	'EQeq! by Chris Wilmer'
_symmetry_space_group_name_H-M	'P1'
_symmetry_Int_Tables_number	1
_symmetry_cell_setting	triclinic
loop_
_symmetry_equiv_pos_as_xyz
  x,y,z
_cell_length_a	18.508
_cell_length_b	18.508
_cell_length_c	38.802
_cell_angle_alpha	90
_cell_angle_beta	90
_cell_angle_gamma	120
loop_
_atom_site_label
_atom_site_type_symbol
_atom_site_fract_x
_atom_site_fract_y
_atom_site_fract_z
_atom_site_charge
Mof_O 	O 	0.7893	0.7607	0.6192	-0.131
Mof_C 	C 	0.8171	0.7277	0.6781	0.002
Mof_O 	O 	0.7766	0.8148	0.83612	-0.39
Mof_O 	O 	0.6957	0.7746	0.7885	-0.386
Mof_C 	C 	0.803	0.7016	0.6431	0.086
Mof_C 	C 	0.8178	0.7639	0.78853	-0.031
Mof_C 	C 	0.7584	0.785	0.80578	0.329
Mof_C 	C 	0.8028	0.7346	0.75522	-0.07
Mof_H 	H 	0.7542	0.7249	0.7441	0.094
Mof_O 	O 	0.45597	0.09403	0.95253	-0.13
Mof_C 	C 	0.48377	0.06103	0.01143	0.003
Mof_O 	O 	0.44327	0.14813	0.16945	-0.39
Mof_O 	O 	0.36237	0.10793	0.12183	-0.386
Mof_C 	C 	0.46967	0.03493	0.97643	0.086
Mof_C 	C 	0.48447	0.09723	0.12186	-0.031
Mof_C 	C 	0.42507	0.11833	0.13911	0.329
Mof_C 	C 	0.46947	0.06793	0.08855	-0.07
Mof_H 	H 	0.42087	0.05823	0.07743	0.094
Mof_O 	O 	0.12263	0.42737	0.28587	-0.13
Mof_C 	C 	0.15043	0.39437	0.34477	0.003
Mof_O 	O 	0.10993	0.48147	0.50279	-0.39
Mof_O 	O 	0.02903	0.44127	0.45517	-0.386
Mof_C 	C 	0.13633	0.36827	0.30977	0.086
Mof_C 	C 	0.15113	0.43057	0.4552	-0.031
Mof_C 	C 	0.09173	0.45167	0.47245	0.329
Mof_C 	C 	0.13613	0.40127	0.42189	-0.07
Mof_H 	H 	0.08753	0.39157	0.41077	0.094
Mof_O 	O 	0.2393	0.0286	0.6192	-0.13
Mof_C 	C 	0.2723	0.0894	0.6781	0.003
Mof_O 	O 	0.1852	0.9618	0.83612	-0.39
Mof_O 	O 	0.2254	0.9211	0.7885	-0.386
Mof_C 	C 	0.2984	0.1014	0.6431	0.086
Mof_C 	C 	0.2361	0.0539	0.78853	-0.03
Mof_C 	C 	0.215	0.9734	0.80578	0.329
Mof_C 	C 	0.2654	0.0682	0.75522	-0.07
Mof_H 	H 	0.2751	0.0293	0.7441	0.094
Mof_O 	O 	0.90597	0.36193	0.95253	-0.13
Mof_C 	C 	0.93897	0.42273	0.01143	0.003
Mof_O 	O 	0.85187	0.29513	0.16945	-0.39
Mof_O 	O 	0.89207	0.25443	0.12183	-0.386
Mof_C 	C 	0.96507	0.43473	0.97643	0.086
Mof_C 	C 	0.90277	0.38723	0.12186	-0.031
Mof_C 	C 	0.88167	0.30673	0.13911	0.329
Mof_C 	C 	0.93207	0.40153	0.08855	-0.07
Mof_H 	H 	0.94177	0.36263	0.07743	0.094
Mof_O 	O 	0.57263	0.69527	0.28587	-0.13
Mof_C 	C 	0.60563	0.75607	0.34477	0.003
Mof_O 	O 	0.51853	0.62847	0.50279	-0.39
Mof_O 	O 	0.55873	0.58777	0.45517	-0.386
Mof_C 	C 	0.63173	0.76807	0.30977	0.086
Mof_C 	C 	0.56943	0.72057	0.4552	-0.031
Mof_C 	C 	0.54833	0.64007	0.47245	0.329
Mof_C 	C 	0.59873	0.73487	0.42189	-0.07
Mof_H 	H 	0.60843	0.69597	0.41077	0.094
Mof_O 	O 	0.9714	0.2107	0.6192	-0.13
Mof_C 	C 	0.9106	0.1829	0.6781	0.003
Mof_O 	O 	0.0382	0.2234	0.83612	-0.39
Mof_O 	O 	0.0789	0.3043	0.7885	-0.386
Mof_C 	C 	0.8986	0.197	0.6431	0.086
Mof_C 	C 	0.9461	0.1822	0.78853	-0.03
Mof_C 	C 	0.0266	0.2416	0.80578	0.329
Mof_C 	C 	0.9318	0.1972	0.75522	-0.07
Mof_H 	H 	0.9707	0.2458	0.7441	0.094
Mof_O 	O 	0.63807	0.54403	0.95253	-0.13
Mof_C 	C 	0.57727	0.51623	0.01143	0.003
Mof_O 	O 	0.70487	0.55673	0.16945	-0.39
Mof_O 	O 	0.74557	0.63763	0.12183	-0.386
Mof_C 	C 	0.56527	0.53033	0.97643	0.086
Mof_C 	C 	0.61277	0.51553	0.12186	-0.031
Mof_C 	C 	0.69327	0.57493	0.13911	0.329
Mof_C 	C 	0.59847	0.53053	0.08855	-0.07
Mof_H 	H 	0.63737	0.57913	0.07743	0.094
Mof_O 	O 	0.30473	0.87737	0.28587	-0.13
Mof_C 	C 	0.24393	0.84957	0.34477	0.003
Mof_O 	O 	0.37153	0.89007	0.50279	-0.39
Mof_O 	O 	0.41223	0.97097	0.45517	-0.386
Mof_C 	C 	0.23193	0.86367	0.30977	0.086
Mof_C 	C 	0.27943	0.84887	0.4552	-0.031
Mof_C 	C 	0.35993	0.90827	0.47245	0.329
Mof_C 	C 	0.26513	0.86387	0.42189	-0.07
Mof_H 	H 	0.30403	0.91247	0.41077	0.094
Mof_O 	O 	0.7607	0.7893	0.3808	-0.13
Mof_C 	C 	0.7277	0.8171	0.3219	0.003
Mof_O 	O 	0.8148	0.7766	0.16388	-0.39
Mof_O 	O 	0.7746	0.6957	0.2115	-0.386
Mof_C 	C 	0.7016	0.803	0.3569	0.086
Mof_C 	C 	0.7639	0.8178	0.21147	-0.031
Mof_C 	C 	0.785	0.7584	0.19422	0.329
Mof_C 	C 	0.7346	0.8028	0.24478	-0.07
Mof_H 	H 	0.7249	0.7542	0.2559	0.094
Mof_O 	O 	0.42737	0.12263	0.71413	-0.13
Mof_C 	C 	0.39437	0.15043	0.65523	0.003
Mof_O 	O 	0.48147	0.10993	0.49721	-0.39
Mof_O 	O 	0.44127	0.02903	0.54483	-0.386
Mof_C 	C 	0.36827	0.13633	0.69023	0.086
Mof_C 	C 	0.43057	0.15113	0.5448	-0.031
Mof_C 	C 	0.45167	0.09173	0.52755	0.329
Mof_C 	C 	0.40127	0.13613	0.57811	-0.07
Mof_H 	H 	0.39157	0.08753	0.58923	0.094
Mof_O 	O 	0.09403	0.45597	0.04747	-0.13
Mof_C 	C 	0.06103	0.48377	0.98857	0.003
Mof_O 	O 	0.14813	0.44327	0.83055	-0.39
Mof_O 	O 	0.10793	0.36237	0.87817	-0.386
Mof_C 	C 	0.03493	0.46967	0.02357	0.086
Mof_C 	C 	0.09723	0.48447	0.87814	-0.031
Mof_C 	C 	0.11833	0.42507	0.86089	0.329
Mof_C 	C 	0.06793	0.46947	0.91145	-0.07
Mof_H 	H 	0.05823	0.42087	0.92257	0.094
Mof_O 	O 	0.0286	0.2393	0.3808	-0.13
Mof_C 	C 	0.0894	0.2723	0.3219	0.003
Mof_O 	O 	0.9618	0.1852	0.16388	-0.39
Mof_O 	O 	0.9211	0.2254	0.2115	-0.386
Mof_C 	C 	0.1014	0.2984	0.3569	0.086
Mof_C 	C 	0.0539	0.2361	0.21147	-0.03
Mof_C 	C 	0.9734	0.215	0.19422	0.329
Mof_C 	C 	0.0682	0.2654	0.24478	-0.07
Mof_H 	H 	0.0293	0.2751	0.2559	0.094
Mof_O 	O 	0.69527	0.57263	0.71413	-0.13
Mof_C 	C 	0.75607	0.60563	0.65523	0.003
Mof_O 	O 	0.62847	0.51853	0.49721	-0.39
Mof_O 	O 	0.58777	0.55873	0.54483	-0.386
Mof_C 	C 	0.76807	0.63173	0.69023	0.086
Mof_C 	C 	0.72057	0.56943	0.5448	-0.031
Mof_C 	C 	0.64007	0.54833	0.52755	0.329
Mof_C 	C 	0.73487	0.59873	0.57811	-0.07
Mof_H 	H 	0.69597	0.60843	0.58923	0.094
Mof_O 	O 	0.36193	0.90597	0.04747	-0.13
Mof_C 	C 	0.42273	0.93897	0.98857	0.003
Mof_O 	O 	0.29513	0.85187	0.83055	-0.39
Mof_O 	O 	0.25443	0.89207	0.87817	-0.386
Mof_C 	C 	0.43473	0.96507	0.02357	0.086
Mof_C 	C 	0.38723	0.90277	0.87814	-0.031
Mof_C 	C 	0.30673	0.88167	0.86089	0.329
Mof_C 	C 	0.40153	0.93207	0.91145	-0.07
Mof_H 	H 	0.36263	0.94177	0.92257	0.094
Mof_O 	O 	0.2107	0.9714	0.3808	-0.13
Mof_C 	C 	0.1829	0.9106	0.3219	0.003
Mof_O 	O 	0.2234	0.0382	0.16388	-0.39
Mof_O 	O 	0.3043	0.0789	0.2115	-0.386
Mof_C 	C 	0.197	0.8986	0.3569	0.086
Mof_C 	C 	0.1822	0.9461	0.21147	-0.03
Mof_C 	C 	0.2416	0.0266	0.19422	0.329
Mof_C 	C 	0.1972	0.9318	0.24478	-0.07
Mof_H 	H 	0.2458	0.9707	0.2559	0.094
Mof_O 	O 	0.87737	0.30473	0.71413	-0.13
Mof_C 	C 	0.84957	0.24393	0.65523	0.003
Mof_O 	O 	0.89007	0.37153	0.49721	-0.39
Mof_O 	O 	0.97097	0.41223	0.54483	-0.386
Mof_C 	C 	0.86367	0.23193	0.69023	0.086
Mof_C 	C 	0.84887	0.27943	0.5448	-0.031
Mof_C 	C 	0.90827	0.35993	0.52755	0.329
Mof_C 	C 	0.86387	0.26513	0.57811	-0.07
Mof_H 	H 	0.91247	0.30403	0.58923	0.094
Mof_O 	O 	0.54403	0.63807	0.04747	-0.13
Mof_C 	C 	0.51623	0.57727	0.98857	0.003
Mof_O 	O 	0.55673	0.70487	0.83055	-0.39
Mof_O 	O 	0.63763	0.74557	0.87817	-0.386
Mof_C 	C 	0.53033	0.56527	0.02357	0.086
Mof_C 	C 	0.51553	0.61277	0.87814	-0.031
Mof_C 	C 	0.57493	0.69327	0.86089	0.329
Mof_C 	C 	0.53053	0.59847	0.91145	-0.07
Mof_H 	H 	0.57913	0.63737	0.92257	0.094
Mof_O 	O 	0.2107	0.2393	0.3808	-0.13
Mof_C 	C 	0.1829	0.2723	0.3219	0.003
Mof_O 	O 	0.2234	0.1852	0.16388	-0.39
Mof_O 	O 	0.3043	0.2254	0.2115	-0.386
Mof_C 	C 	0.197	0.2984	0.3569	0.086
Mof_C 	C 	0.1822	0.2361	0.21147	-0.031
Mof_C 	C 	0.2416	0.215	0.19422	0.329
Mof_C 	C 	0.1972	0.2654	0.24478	-0.07
Mof_H 	H 	0.2458	0.2751	0.2559	0.094
Mof_O 	O 	0.87737	0.57263	0.71413	-0.13
Mof_C 	C 	0.84957	0.60563	0.65523	0.003
Mof_O 	O 	0.89007	0.51853	0.49721	-0.39
Mof_O 	O 	0.97097	0.55873	0.54483	-0.386
Mof_C 	C 	0.86367	0.63173	0.69023	0.086
Mof_C 	C 	0.84887	0.56943	0.5448	-0.031
Mof_C 	C 	0.90827	0.54833	0.52755	0.329
Mof_C 	C 	0.86387	0.59873	0.57811	-0.07
Mof_H 	H 	0.91247	0.60843	0.58923	0.094
Mof_O 	O 	0.54403	0.90597	0.04747	-0.13
Mof_C 	C 	0.51623	0.93897	0.98857	0.003
Mof_O 	O 	0.55673	0.85187	0.83055	-0.39
Mof_O 	O 	0.63763	0.89207	0.87817	-0.386
Mof_C 	C 	0.53033	0.96507	0.02357	0.086
Mof_C 	C 	0.51553	0.90277	0.87814	-0.031
Mof_C 	C 	0.57493	0.88167	0.86089	0.329
Mof_C 	C 	0.53053	0.93207	0.91145	-0.07
Mof_H 	H 	0.57913	0.94177	0.92257	0.094
Mof_O 	O 	0.7607	0.9714	0.3808	-0.13
Mof_C 	C 	0.7277	0.9106	0.3219	0.003
Mof_O 	O 	0.8148	0.0382	0.16388	-0.39
Mof_O 	O 	0.7746	0.0789	0.2115	-0.386
Mof_C 	C 	0.7016	0.8986	0.3569	0.086
Mof_C 	C 	0.7639	0.9461	0.21147	-0.03
Mof_C 	C 	0.785	0.0266	0.19422	0.329
Mof_C 	C 	0.7346	0.9318	0.24478	-0.07
Mof_H 	H 	0.7249	0.9707	0.2559	0.094
Mof_O 	O 	0.42737	0.30473	0.71413	-0.13
Mof_C 	C 	0.39437	0.24393	0.65523	0.003
Mof_O 	O 	0.48147	0.37153	0.49721	-0.39
Mof_O 	O 	0.44127	0.41223	0.54483	-0.386
Mof_C 	C 	0.36827	0.23193	0.69023	0.086
Mof_C 	C 	0.43057	0.27943	0.5448	-0.031
Mof_C 	C 	0.45167	0.35993	0.52755	0.329
Mof_C 	C 	0.40127	0.26513	0.57811	-0.07
Mof_H 	H 	0.39157	0.30403	0.58923	0.094
Mof_O 	O 	0.09403	0.63807	0.04747	-0.13
Mof_C 	C 	0.06103	0.57727	0.98857	0.003
Mof_O 	O 	0.14813	0.70487	0.83055	-0.39
Mof_O 	O 	0.10793	0.74557	0.87817	-0.386
Mof_C 	C 	0.03493	0.56527	0.02357	0.086
Mof_C 	C 	0.09723	0.61277	0.87814	-0.031
Mof_C 	C 	0.11833	0.69327	0.86089	0.329
Mof_C 	C 	0.06793	0.59847	0.91145	-0.07
Mof_H 	H 	0.05823	0.63737	0.92257	0.094
Mof_O 	O 	0.0286	0.7893	0.3808	-0.13
Mof_C 	C 	0.0894	0.8171	0.3219	0.003
Mof_O 	O 	0.9618	0.7766	0.16388	-0.39
Mof_O 	O 	0.9211	0.6957	0.2115	-0.386
Mof_C 	C 	0.1014	0.803	0.3569	0.086
Mof_C 	C 	0.0539	0.8178	0.21147	-0.03
Mof_C 	C 	0.9734	0.7584	0.19422	0.329
Mof_C 	C 	0.0682	0.8028	0.24478	-0.07
Mof_H 	H 	0.0293	0.7542	0.2559	0.094
Mof_O 	O 	0.69527	0.12263	0.71413	-0.13
Mof_C 	C 	0.75607	0.15043	0.65523	0.003
Mof_O 	O 	0.62847	0.10993	0.49721	-0.39
Mof_O 	O 	0.58777	0.02903	0.54483	-0.386
Mof_C 	C 	0.76807	0.13633	0.69023	0.086
Mof_C 	C 	0.72057	0.15113	0.5448	-0.031
Mof_C 	C 	0.64007	0.09173	0.52755	0.329
Mof_C 	C 	0.73487	0.13613	0.57811	-0.07
Mof_H 	H 	0.69597	0.08753	0.58923	0.094
Mof_O 	O 	0.36193	0.45597	0.04747	-0.13
Mof_C 	C 	0.42273	0.48377	0.98857	0.003
Mof_O 	O 	0.29513	0.44327	0.83055	-0.39
Mof_O 	O 	0.25443	0.36237	0.87817	-0.386
Mof_C 	C 	0.43473	0.46967	0.02357	0.086
Mof_C 	C 	0.38723	0.48447	0.87814	-0.031
Mof_C 	C 	0.30673	0.42507	0.86089	0.329
Mof_C 	C 	0.40153	0.46947	0.91145	-0.07
Mof_H 	H 	0.36263	0.42087	0.92257	0.094
Mof_O 	O 	0.2393	0.2107	0.6192	-0.13
Mof_C 	C 	0.2723	0.1829	0.6781	0.003
Mof_O 	O 	0.1852	0.2234	0.83612	-0.39
Mof_O 	O 	0.2254	0.3043	0.7885	-0.386
Mof_C 	C 	0.2984	0.197	0.6431	0.086
Mof_C 	C 	0.2361	0.1822	0.78853	-0.031
Mof_C 	C 	0.215	0.2416	0.80578	0.329
Mof_C 	C 	0.2654	0.1972	0.75522	-0.07
Mof_H 	H 	0.2751	0.2458	0.7441	0.094
Mof_O 	O 	0.90597	0.54403	0.95253	-0.13
Mof_C 	C 	0.93897	0.51623	0.01143	0.003
Mof_O 	O 	0.85187	0.55673	0.16945	-0.39
Mof_O 	O 	0.89207	0.63763	0.12183	-0.386
Mof_C 	C 	0.96507	0.53033	0.97643	0.086
Mof_C 	C 	0.90277	0.51553	0.12186	-0.031
Mof_C 	C 	0.88167	0.57493	0.13911	0.329
Mof_C 	C 	0.93207	0.53053	0.08855	-0.07
Mof_H 	H 	0.94177	0.57913	0.07743	0.094
Mof_O 	O 	0.57263	0.87737	0.28587	-0.13
Mof_C 	C 	0.60563	0.84957	0.34477	0.003
Mof_O 	O 	0.51853	0.89007	0.50279	-0.39
Mof_O 	O 	0.55873	0.97097	0.45517	-0.386
Mof_C 	C 	0.63173	0.86367	0.30977	0.086
Mof_C 	C 	0.56943	0.84887	0.4552	-0.031
Mof_C 	C 	0.54833	0.90827	0.47245	0.329
Mof_C 	C 	0.59873	0.86387	0.42189	-0.07
Mof_H 	H 	0.60843	0.91247	0.41077	0.094
Mof_O 	O 	0.9714	0.7607	0.6192	-0.13
Mof_C 	C 	0.9106	0.7277	0.6781	0.003
Mof_O 	O 	0.0382	0.8148	0.83612	-0.39
Mof_O 	O 	0.0789	0.7746	0.7885	-0.386
Mof_C 	C 	0.8986	0.7016	0.6431	0.086
Mof_C 	C 	0.9461	0.7639	0.78853	-0.03
Mof_C 	C 	0.0266	0.785	0.80578	0.329
Mof_C 	C 	0.9318	0.7346	0.75522	-0.07
Mof_H 	H 	0.9707	0.7249	0.7441	0.094
Mof_O 	O 	0.63807	0.09403	0.95253	-0.13
Mof_C 	C 	0.57727	0.06103	0.01143	0.003
Mof_O 	O 	0.70487	0.14813	0.16945	-0.39
Mof_O 	O 	0.74557	0.10793	0.12183	-0.386
Mof_C 	C 	0.56527	0.03493	0.97643	0.086
Mof_C 	C 	0.61277	0.09723	0.12186	-0.031
Mof_C 	C 	0.69327	0.11833	0.13911	0.329
Mof_C 	C 	0.59847	0.06793	0.08855	-0.07
Mof_H 	H 	0.63737	0.05823	0.07743	0.094
Mof_O 	O 	0.30473	0.42737	0.28587	-0.13
Mof_C 	C 	0.24393	0.39437	0.34477	0.003
Mof_O 	O 	0.37153	0.48147	0.50279	-0.39
Mof_O 	O 	0.41223	0.44127	0.45517	-0.386
Mof_C 	C 	0.23193	0.36827	0.30977	0.086
Mof_C 	C 	0.27943	0.43057	0.4552	-0.031
Mof_C 	C 	0.35993	0.45167	0.47245	0.329
Mof_C 	C 	0.26513	0.40127	0.42189	-0.07
Mof_H 	H 	0.30403	0.39157	0.41077	0.094
Mof_O 	O 	0.7893	0.0286	0.6192	-0.13
Mof_C 	C 	0.8171	0.0894	0.6781	0.003
Mof_O 	O 	0.7766	0.9618	0.83612	-0.39
Mof_O 	O 	0.6957	0.9211	0.7885	-0.386
Mof_C 	C 	0.803	0.1014	0.6431	0.086
Mof_C 	C 	0.8178	0.0539	0.78853	-0.03
Mof_C 	C 	0.7584	0.9734	0.80578	0.329
Mof_C 	C 	0.8028	0.0682	0.75522	-0.07
Mof_H 	H 	0.7542	0.0293	0.7441	0.094
Mof_O 	O 	0.45597	0.36193	0.95253	-0.13
Mof_C 	C 	0.48377	0.42273	0.01143	0.003
Mof_O 	O 	0.44327	0.29513	0.16945	-0.39
Mof_O 	O 	0.36237	0.25443	0.12183	-0.386
Mof_C 	C 	0.46967	0.43473	0.97643	0.086
Mof_C 	C 	0.48447	0.38723	0.12186	-0.031
Mof_C 	C 	0.42507	0.30673	0.13911	0.329
Mof_C 	C 	0.46947	0.40153	0.08855	-0.07
Mof_H 	H 	0.42087	0.36263	0.07743	0.094
Mof_O 	O 	0.12263	0.69527	0.28587	-0.13
Mof_C 	C 	0.15043	0.75607	0.34477	0.003
Mof_O 	O 	0.10993	0.62847	0.50279	-0.39
Mof_O 	O 	0.02903	0.58777	0.45517	-0.386
Mof_C 	C 	0.13633	0.76807	0.30977	0.086
Mof_C 	C 	0.15113	0.72057	0.4552	-0.031
Mof_C 	C 	0.09173	0.64007	0.47245	0.329
Mof_C 	C 	0.13613	0.73487	0.42189	-0.07
Mof_H 	H 	0.08753	0.69597	0.41077	0.094
Mof_Cu	Cu	0.71431	0.85716	0.86087	0.909
Mof_Cu	Cu	0.38098	0.19049	0.1942	0.909
Mof_Cu	Cu	0.04764	0.52382	0.52754	0.909
Mof_Cu	Cu	0.14285	0.85716	0.86087	0.909
Mof_Cu	Cu	0.80951	0.19049	0.1942	0.909
Mof_Cu	Cu	0.47618	0.52382	0.52754	0.909
Mof_Cu	Cu	0.14285	0.28569	0.86087	0.909
Mof_Cu	Cu	0.80951	0.61902	0.1942	0.909
Mof_Cu	Cu	0.47618	0.95236	0.52754	0.909
Mof_Cu	Cu	0.85716	0.71431	0.13913	0.909
Mof_Cu	Cu	0.52382	0.04764	0.47246	0.909
Mof_Cu	Cu	0.19049	0.38098	0.8058	0.909
Mof_Cu	Cu	0.85715	0.14285	0.13913	0.909
Mof_Cu	Cu	0.52382	0.47618	0.47246	0.909
Mof_Cu	Cu	0.19049	0.80951	0.8058	0.909
Mof_Cu	Cu	0.28569	0.14285	0.13913	0.909
Mof_Cu	Cu	0.95236	0.47618	0.47246	0.909
Mof_Cu	Cu	0.61902	0.80951	0.8058	0.909
Mof_C 	C 	0.84555	0.6911	0.7012	-0.071
Mof_C 	C 	0.8897	0.7794	0.80531	-0.014
Mof_H 	H 	0.9	0.8	0.8277	0.074
Mof_C 	C 	0.85965	0.7193	0.7381	0.091
Mof_C 	C 	0.51222	0.02443	0.03453	-0.071
Mof_C 	C 	0.55637	0.11273	0.13864	-0.013
Mof_H 	H 	0.56667	0.13333	0.16103	0.074
Mof_C 	C 	0.52632	0.05263	0.07143	0.091
Mof_C 	C 	0.17888	0.35777	0.36787	-0.071
Mof_C 	C 	0.22303	0.44607	0.47198	-0.013
Mof_H 	H 	0.23333	0.46667	0.49437	0.074
Mof_C 	C 	0.19298	0.38597	0.40477	0.091
Mof_C 	C 	0.3089	0.15445	0.7012	-0.071
Mof_C 	C 	0.2206	0.1103	0.80531	-0.014
Mof_H 	H 	0.2	0.1	0.8277	0.074
Mof_C 	C 	0.2807	0.14035	0.7381	0.091
Mof_C 	C 	0.97557	0.48778	0.03453	-0.071
Mof_C 	C 	0.88727	0.44363	0.13864	-0.013
Mof_H 	H 	0.86667	0.43333	0.16103	0.074
Mof_C 	C 	0.94737	0.47368	0.07143	0.091
Mof_C 	C 	0.64223	0.82112	0.36787	-0.071
Mof_C 	C 	0.55393	0.77697	0.47198	-0.013
Mof_H 	H 	0.53333	0.76667	0.49437	0.074
Mof_C 	C 	0.61403	0.80702	0.40477	0.091
Mof_C 	C 	0.84555	0.15445	0.7012	-0.071
Mof_C 	C 	0.8897	0.1103	0.80531	-0.014
Mof_H 	H 	0.9	0.1	0.8277	0.074
Mof_C 	C 	0.85965	0.14035	0.7381	0.091
Mof_C 	C 	0.51222	0.48778	0.03453	-0.071
Mof_C 	C 	0.55637	0.44363	0.13864	-0.013
Mof_H 	H 	0.56667	0.43333	0.16103	0.074
Mof_C 	C 	0.52632	0.47368	0.07143	0.091
Mof_C 	C 	0.17888	0.82112	0.36787	-0.071
Mof_C 	C 	0.22303	0.77697	0.47198	-0.013
Mof_H 	H 	0.23333	0.76667	0.49437	0.074
Mof_C 	C 	0.19298	0.80702	0.40477	0.091
Mof_C 	C 	0.6911	0.84555	0.2988	-0.071
Mof_C 	C 	0.7794	0.8897	0.19469	-0.014
Mof_H 	H 	0.8	0.9	0.1723	0.074
Mof_C 	C 	0.7193	0.85965	0.2619	0.091
Mof_C 	C 	0.35777	0.17888	0.63213	-0.071
Mof_C 	C 	0.44607	0.22303	0.52802	-0.013
Mof_H 	H 	0.46667	0.23333	0.50563	0.074
Mof_C 	C 	0.38597	0.19298	0.59523	0.091
Mof_C 	C 	0.02443	0.51222	0.96547	-0.071
Mof_C 	C 	0.11273	0.55637	0.86136	-0.013
Mof_H 	H 	0.13333	0.56667	0.83897	0.074
Mof_C 	C 	0.05263	0.52632	0.92857	0.091
Mof_C 	C 	0.15445	0.3089	0.2988	-0.071
Mof_C 	C 	0.1103	0.2206	0.19469	-0.014
Mof_H 	H 	0.1	0.2	0.1723	0.074
Mof_C 	C 	0.14035	0.2807	0.2619	0.091
Mof_C 	C 	0.82112	0.64223	0.63213	-0.071
Mof_C 	C 	0.77697	0.55393	0.52802	-0.013
Mof_H 	H 	0.76667	0.53333	0.50563	0.074
Mof_C 	C 	0.80702	0.61403	0.59523	0.091
Mof_C 	C 	0.48778	0.97557	0.96547	-0.071
Mof_C 	C 	0.44363	0.88727	0.86136	-0.013
Mof_H 	H 	0.43333	0.86667	0.83897	0.074
Mof_C 	C 	0.47368	0.94737	0.92857	0.091
Mof_C 	C 	0.15445	0.84555	0.2988	-0.071
Mof_C 	C 	0.1103	0.8897	0.19469	-0.014
Mof_H 	H 	0.1	0.9	0.1723	0.074
Mof_C 	C 	0.14035	0.85965	0.2619	0.091
Mof_C 	C 	0.82112	0.17888	0.63213	-0.071
Mof_C 	C 	0.77697	0.22303	0.52802	-0.013
Mof_H 	H 	0.76667	0.23333	0.50563	0.074
Mof_C 	C 	0.80702	0.19298	0.59523	0.091
Mof_C 	C 	0.48778	0.51222	0.96547	-0.071
Mof_C 	C 	0.44363	0.55637	0.86136	-0.013
Mof_H 	H 	0.43333	0.56667	0.83897	0.074
Mof_C 	C 	0.47368	0.52632	0.92857	0.091
_end
