data_functionalizedCrystal
_audit_creation_method	'EQeq! by Chris Wilmer'
_symmetry_space_group_name_H-M	'P1'
_symmetry_Int_Tables_number	1
_symmetry_cell_setting	triclinic
loop_
_symmetry_equiv_pos_as_xyz
  x,y,z
_cell_length_a	11.2163
_cell_length_b	11.2163
_cell_length_c	18.286
_cell_angle_alpha	90
_cell_angle_beta	90
_cell_angle_gamma	90
loop_
_atom_site_label
_atom_site_type_symbol
_atom_site_fract_x
_atom_site_fract_y
_atom_site_fract_z
_atom_site_charge
Mof_N 	N 	0.4142	0.1458	0.318	-0.179
Mof_C 	C 	0.3455	0.2138	0.3371	0.099
Mof_C 	C 	0.2568	0.3004	0.362	0.003
Mof_H 	H 	0.1941	0.3093	0.3243	0.03
Mof_H 	H 	0.2954	0.379	0.3689	0.009
Mof_C 	C 	0.1994	0.2595	0.435	-0.38
Mof_H 	H 	0.1647	0.178	0.4285	0.168
Mof_C 	C 	0.1001	0.3464	0.4592	1.76
Mof_H 	H 	0.1163	0.4275	0.4403	-0.373
Mof_H 	H 	0.0218	0.3196	0.4403	-2.634
Mof_N 	N 	0.3521	0.0858	0.1818	-0.087
Mof_C 	C 	0.2839	0.1551	0.1636	-0.068
Mof_C 	C 	0.1973	0.2432	0.1381	-0.119
Mof_H 	H 	0.1875	0.3059	0.1757	0.138
Mof_H 	H 	0.1191	0.2041	0.1307	0.203
Mof_C 	C 	0.2391	0.3007	0.0653	0.074
Mof_H 	H 	0.3209	0.3343	0.0719	-0.005
Mof_C 	C 	0.153	0.4012	0.0413	-0.233
Mof_H 	H 	0.0721	0.386	0.0602	0.242
Mof_H 	H 	0.1812	0.4791	0.0602	0.057
Mof_N 	N 	0.9142	0.6458	0.818	-0.427
Mof_C 	C 	0.8455	0.7138	0.8371	-0.024
Mof_C 	C 	0.7568	0.8004	0.862	-0.053
Mof_H 	H 	0.6941	0.8093	0.8243	0.076
Mof_H 	H 	0.7954	0.879	0.8689	-0.078
Mof_C 	C 	0.6994	0.7595	0.935	-0.015
Mof_H 	H 	0.6647	0.678	0.9285	0.018
Mof_C 	C 	0.6001	0.8464	0.9592	-0.088
Mof_H 	H 	0.6163	0.9275	0.9403	-0.119
Mof_H 	H 	0.5218	0.8196	0.9403	0.041
Mof_N 	N 	0.8521	0.5858	0.6818	-0.328
Mof_C 	C 	0.7839	0.6551	0.6636	-0.214
Mof_C 	C 	0.6973	0.7432	0.6381	-0.194
Mof_H 	H 	0.6875	0.8059	0.6757	0.179
Mof_H 	H 	0.6191	0.7041	0.6307	0.109
Mof_C 	C 	0.7391	0.8007	0.5653	0.39
Mof_H 	H 	0.8209	0.8343	0.5719	-0.145
Mof_C 	C 	0.653	0.9012	0.5413	-2.095
Mof_H 	H 	0.5721	0.886	0.5602	0.508
Mof_H 	H 	0.6812	0.9791	0.5602	2.74
Mof_N 	N 	0.5858	0.8542	0.318	-0.346
Mof_C 	C 	0.6545	0.7862	0.3371	-0.169
Mof_C 	C 	0.7432	0.6996	0.362	-0.189
Mof_H 	H 	0.8059	0.6907	0.3243	0.197
Mof_H 	H 	0.7046	0.621	0.3689	0.123
Mof_C 	C 	0.8006	0.7405	0.435	0.433
Mof_H 	H 	0.8353	0.822	0.4285	-0.155
Mof_C 	C 	0.8999	0.6536	0.4592	-2.078
Mof_H 	H 	0.8837	0.5725	0.4403	0.494
Mof_H 	H 	0.9782	0.6804	0.4403	2.734
Mof_N 	N 	0.6479	0.9142	0.1818	-0.418
Mof_C 	C 	0.7161	0.8449	0.1636	-0.042
Mof_C 	C 	0.8027	0.7568	0.1381	-0.044
Mof_H 	H 	0.8125	0.6941	0.1757	0.066
Mof_H 	H 	0.8809	0.7959	0.1307	-0.09
Mof_C 	C 	0.7609	0.6993	0.0653	-0.018
Mof_H 	H 	0.6791	0.6657	0.0719	0.014
Mof_C 	C 	0.847	0.5988	0.0413	-0.12
Mof_H 	H 	0.9279	0.614	0.0602	-0.114
Mof_H 	H 	0.8188	0.5209	0.0602	0.041
Mof_N 	N 	0.0858	0.3542	0.818	-0.097
Mof_C 	C 	0.1545	0.2862	0.8371	-0.046
Mof_C 	C 	0.2432	0.1996	0.862	-0.134
Mof_H 	H 	0.3059	0.1907	0.8243	0.152
Mof_H 	H 	0.2046	0.121	0.8689	0.212
Mof_C 	C 	0.3006	0.2405	0.935	0.074
Mof_H 	H 	0.3353	0.322	0.9285	-0.007
Mof_C 	C 	0.3999	0.1536	0.9592	-0.191
Mof_H 	H 	0.3837	0.0725	0.9403	0.233
Mof_H 	H 	0.4782	0.1804	0.9403	0.052
Mof_N 	N 	0.1479	0.4142	0.6818	-0.177
Mof_C 	C 	0.2161	0.3449	0.6636	0.105
Mof_C 	C 	0.3027	0.2568	0.6381	0.033
Mof_H 	H 	0.3125	0.1941	0.6757	0.024
Mof_H 	H 	0.3809	0.2959	0.6307	0.003
Mof_C 	C 	0.2609	0.1993	0.5653	-0.342
Mof_H 	H 	0.1791	0.1657	0.5719	0.158
Mof_C 	C 	0.347	0.0988	0.5413	1.772
Mof_H 	H 	0.4279	0.114	0.5602	-0.385
Mof_H 	H 	0.3188	0.0209	0.5602	-2.647
Mof_N 	N 	0.8542	0.4142	0.318	-0.365
Mof_C 	C 	0.7862	0.3455	0.3371	0.052
Mof_C 	C 	0.6996	0.2568	0.362	-0.348
Mof_H 	H 	0.6907	0.1941	0.3243	0.276
Mof_H 	H 	0.621	0.2954	0.3689	0.167
Mof_C 	C 	0.7405	0.1994	0.435	-0.561
Mof_H 	H 	0.822	0.1647	0.4285	-0.173
Mof_C 	C 	0.6536	0.1001	0.4592	1.689
Mof_H 	H 	0.5725	0.1163	0.4403	-0.352
Mof_H 	H 	0.6804	0.0218	0.4403	-2.621
Mof_N 	N 	0.9142	0.3521	0.1818	-0.389
Mof_C 	C 	0.8449	0.2839	0.1636	-0.103
Mof_C 	C 	0.7568	0.1973	0.1381	-0.033
Mof_H 	H 	0.6941	0.1875	0.1757	0.061
Mof_H 	H 	0.7959	0.1191	0.1307	0.095
Mof_C 	C 	0.6993	0.2391	0.0653	0.059
Mof_H 	H 	0.6657	0.3209	0.0719	0.012
Mof_C 	C 	0.5988	0.153	0.0413	-0.241
Mof_H 	H 	0.614	0.0721	0.0602	0.238
Mof_H 	H 	0.5209	0.1812	0.0602	0.092
Mof_N 	N 	0.3542	0.9142	0.818	-0.401
Mof_C 	C 	0.2862	0.8455	0.8371	-0.071
Mof_C 	C 	0.1996	0.7568	0.862	-0.049
Mof_H 	H 	0.1907	0.6941	0.8243	0.068
Mof_H 	H 	0.121	0.7954	0.8689	0.104
Mof_C 	C 	0.2405	0.6994	0.935	0.061
Mof_H 	H 	0.322	0.6647	0.9285	0.013
Mof_C 	C 	0.1536	0.6001	0.9592	-0.2
Mof_H 	H 	0.0725	0.6163	0.9403	0.229
Mof_H 	H 	0.1804	0.5218	0.9403	0.086
Mof_N 	N 	0.4142	0.8521	0.6818	-0.355
Mof_C 	C 	0.3449	0.7839	0.6636	0.036
Mof_C 	C 	0.2568	0.6973	0.6381	-0.335
Mof_H 	H 	0.1941	0.6875	0.6757	0.262
Mof_H 	H 	0.2959	0.6191	0.6307	0.156
Mof_C 	C 	0.1993	0.7391	0.5653	-0.55
Mof_H 	H 	0.1657	0.8209	0.5719	-0.178
Mof_C 	C 	0.0988	0.653	0.5413	1.697
Mof_H 	H 	0.114	0.5721	0.5602	-0.361
Mof_H 	H 	0.0209	0.6812	0.5602	-2.625
Mof_N 	N 	0.1458	0.5858	0.318	-0.159
Mof_C 	C 	0.2138	0.6545	0.3371	-0.121
Mof_C 	C 	0.3004	0.7432	0.362	0.162
Mof_H 	H 	0.3093	0.8059	0.3243	-0.049
Mof_H 	H 	0.379	0.7046	0.3689	-0.036
Mof_C 	C 	0.2595	0.8006	0.435	0.613
Mof_H 	H 	0.178	0.8353	0.4285	0.186
Mof_C 	C 	0.3464	0.8999	0.4592	-2.006
Mof_H 	H 	0.4275	0.8837	0.4403	0.472
Mof_H 	H 	0.3196	0.9782	0.4403	2.721
Mof_N 	N 	0.0858	0.6479	0.1818	-0.116
Mof_C 	C 	0.1551	0.7161	0.1636	-0.008
Mof_C 	C 	0.2432	0.8027	0.1381	-0.13
Mof_H 	H 	0.3059	0.8125	0.1757	0.144
Mof_H 	H 	0.2041	0.8809	0.1307	0.018
Mof_C 	C 	0.3007	0.7609	0.0653	-0.003
Mof_H 	H 	0.3343	0.6791	0.0719	-0.003
Mof_C 	C 	0.4012	0.847	0.0413	-0.111
Mof_H 	H 	0.386	0.9279	0.0602	-0.11
Mof_H 	H 	0.4791	0.8188	0.0602	0.007
Mof_N 	N 	0.6458	0.0858	0.818	-0.123
Mof_C 	C 	0.7138	0.1545	0.8371	0.001
Mof_C 	C 	0.8004	0.2432	0.862	-0.138
Mof_H 	H 	0.8093	0.3059	0.8243	0.16
Mof_H 	H 	0.879	0.2046	0.8689	0.031
Mof_C 	C 	0.7595	0.3006	0.935	-0.001
Mof_H 	H 	0.678	0.3353	0.9285	-0.001
Mof_C 	C 	0.8464	0.3999	0.9592	-0.079
Mof_H 	H 	0.9275	0.3837	0.9403	-0.115
Mof_H 	H 	0.8196	0.4782	0.9403	0.007
Mof_N 	N 	0.5858	0.1479	0.6818	-0.151
Mof_C 	C 	0.6551	0.2161	0.6636	-0.146
Mof_C 	C 	0.7432	0.3027	0.6381	0.174
Mof_H 	H 	0.8059	0.3125	0.6757	-0.06
Mof_H 	H 	0.7041	0.3809	0.6307	-0.044
Mof_C 	C 	0.8007	0.2609	0.5653	0.598
Mof_H 	H 	0.8343	0.1791	0.5719	0.19
Mof_C 	C 	0.9012	0.347	0.5413	-2.02
Mof_H 	H 	0.886	0.4279	0.5602	0.484
Mof_H 	H 	0.9791	0.3188	0.5602	2.718
Mof_N 	N 	0.5858	0.8542	0.682	-0.346
Mof_C 	C 	0.6545	0.7862	0.6629	-0.169
Mof_C 	C 	0.7432	0.6996	0.638	-0.189
Mof_H 	H 	0.8059	0.6907	0.6757	0.197
Mof_H 	H 	0.7046	0.621	0.6311	0.123
Mof_C 	C 	0.8006	0.7405	0.565	0.433
Mof_H 	H 	0.8353	0.822	0.5715	-0.155
Mof_C 	C 	0.8999	0.6536	0.5408	-2.079
Mof_H 	H 	0.8837	0.5725	0.5597	0.494
Mof_H 	H 	0.9782	0.6804	0.5597	2.735
Mof_N 	N 	0.6479	0.9142	0.8182	-0.418
Mof_C 	C 	0.7161	0.8449	0.8364	-0.042
Mof_C 	C 	0.8027	0.7568	0.8619	-0.043
Mof_H 	H 	0.8125	0.6941	0.8243	0.066
Mof_H 	H 	0.8809	0.7959	0.8693	-0.089
Mof_C 	C 	0.7609	0.6993	0.9347	-0.019
Mof_H 	H 	0.6791	0.6657	0.9281	0.015
Mof_C 	C 	0.847	0.5988	0.9587	-0.086
Mof_H 	H 	0.9279	0.614	0.9398	-0.12
Mof_H 	H 	0.8188	0.5209	0.9398	0.035
Mof_N 	N 	0.0858	0.3542	0.182	-0.098
Mof_C 	C 	0.1545	0.2862	0.1629	-0.046
Mof_C 	C 	0.2432	0.1996	0.138	-0.134
Mof_H 	H 	0.3059	0.1907	0.1757	0.152
Mof_H 	H 	0.2046	0.121	0.1311	0.211
Mof_C 	C 	0.3006	0.2405	0.065	0.075
Mof_H 	H 	0.3353	0.322	0.0715	-0.008
Mof_C 	C 	0.3999	0.1536	0.0408	-0.226
Mof_H 	H 	0.3837	0.0725	0.0597	0.239
Mof_H 	H 	0.4782	0.1804	0.0597	0.057
Mof_N 	N 	0.1479	0.4142	0.3182	-0.177
Mof_C 	C 	0.2161	0.3449	0.3364	0.105
Mof_C 	C 	0.3027	0.2568	0.3619	0.033
Mof_H 	H 	0.3125	0.1941	0.3243	0.024
Mof_H 	H 	0.3809	0.2959	0.3693	0.003
Mof_C 	C 	0.2609	0.1993	0.4347	-0.342
Mof_H 	H 	0.1791	0.1657	0.4281	0.158
Mof_C 	C 	0.347	0.0988	0.4587	1.772
Mof_H 	H 	0.4279	0.114	0.4398	-0.385
Mof_H 	H 	0.3188	0.0209	0.4398	-2.647
Mof_N 	N 	0.4142	0.1458	0.682	-0.178
Mof_C 	C 	0.3455	0.2138	0.6629	0.1
Mof_C 	C 	0.2568	0.3004	0.638	0.003
Mof_H 	H 	0.1941	0.3093	0.6757	0.03
Mof_H 	H 	0.2954	0.379	0.6311	0.009
Mof_C 	C 	0.1994	0.2595	0.565	-0.38
Mof_H 	H 	0.1647	0.178	0.5715	0.168
Mof_C 	C 	0.1001	0.3464	0.5408	1.761
Mof_H 	H 	0.1163	0.4275	0.5597	-0.374
Mof_H 	H 	0.0218	0.3196	0.5597	-2.635
Mof_N 	N 	0.3521	0.0858	0.8182	-0.086
Mof_C 	C 	0.2839	0.1551	0.8364	-0.069
Mof_C 	C 	0.1973	0.2432	0.8619	-0.119
Mof_H 	H 	0.1875	0.3059	0.8243	0.138
Mof_H 	H 	0.1191	0.2041	0.8693	0.204
Mof_C 	C 	0.2391	0.3007	0.9347	0.073
Mof_H 	H 	0.3209	0.3343	0.9281	-0.003
Mof_C 	C 	0.153	0.4012	0.9587	-0.197
Mof_H 	H 	0.0721	0.386	0.9398	0.236
Mof_H 	H 	0.1812	0.4791	0.9398	0.051
Mof_N 	N 	0.9142	0.6458	0.182	-0.426
Mof_C 	C 	0.8455	0.7138	0.1629	-0.024
Mof_C 	C 	0.7568	0.8004	0.138	-0.053
Mof_H 	H 	0.6941	0.8093	0.1757	0.077
Mof_H 	H 	0.7954	0.879	0.1311	-0.079
Mof_C 	C 	0.6994	0.7595	0.065	-0.014
Mof_H 	H 	0.6647	0.678	0.0715	0.017
Mof_C 	C 	0.6001	0.8464	0.0408	-0.121
Mof_H 	H 	0.6163	0.9275	0.0597	-0.114
Mof_H 	H 	0.5218	0.8196	0.0597	0.046
Mof_N 	N 	0.8521	0.5858	0.3182	-0.328
Mof_C 	C 	0.7839	0.6551	0.3364	-0.214
Mof_C 	C 	0.6973	0.7432	0.3619	-0.194
Mof_H 	H 	0.6875	0.8059	0.3243	0.179
Mof_H 	H 	0.6191	0.7041	0.3693	0.109
Mof_C 	C 	0.7391	0.8007	0.4347	0.39
Mof_H 	H 	0.8209	0.8343	0.4281	-0.145
Mof_C 	C 	0.653	0.9012	0.4587	-2.095
Mof_H 	H 	0.5721	0.886	0.4398	0.508
Mof_H 	H 	0.6812	0.9791	0.4398	2.74
Mof_N 	N 	0.1458	0.5858	0.682	-0.159
Mof_C 	C 	0.2138	0.6545	0.6629	-0.121
Mof_C 	C 	0.3004	0.7432	0.638	0.162
Mof_H 	H 	0.3093	0.8059	0.6757	-0.049
Mof_H 	H 	0.379	0.7046	0.6311	-0.036
Mof_C 	C 	0.2595	0.8006	0.565	0.614
Mof_H 	H 	0.178	0.8353	0.5715	0.186
Mof_C 	C 	0.3464	0.8999	0.5408	-2.007
Mof_H 	H 	0.4275	0.8837	0.5597	0.472
Mof_H 	H 	0.3196	0.9782	0.5597	2.721
Mof_N 	N 	0.0858	0.6479	0.8182	-0.116
Mof_C 	C 	0.1551	0.7161	0.8364	-0.008
Mof_C 	C 	0.2432	0.8027	0.8619	-0.13
Mof_H 	H 	0.3059	0.8125	0.8243	0.143
Mof_H 	H 	0.2041	0.8809	0.8693	0.019
Mof_C 	C 	0.3007	0.7609	0.9347	-0.003
Mof_H 	H 	0.3343	0.6791	0.9281	-0.001
Mof_C 	C 	0.4012	0.847	0.9587	-0.078
Mof_H 	H 	0.386	0.9279	0.9398	-0.116
Mof_H 	H 	0.4791	0.8188	0.9398	0.001
Mof_N 	N 	0.6458	0.0858	0.182	-0.123
Mof_C 	C 	0.7138	0.1545	0.1629	0.001
Mof_C 	C 	0.8004	0.2432	0.138	-0.139
Mof_H 	H 	0.8093	0.3059	0.1757	0.161
Mof_H 	H 	0.879	0.2046	0.1311	0.03
Mof_C 	C 	0.7595	0.3006	0.065	-0.001
Mof_H 	H 	0.678	0.3353	0.0715	-0.002
Mof_C 	C 	0.8464	0.3999	0.0408	-0.112
Mof_H 	H 	0.9275	0.3837	0.0597	-0.109
Mof_H 	H 	0.8196	0.4782	0.0597	0.012
Mof_N 	N 	0.5858	0.1479	0.3182	-0.151
Mof_C 	C 	0.6551	0.2161	0.3364	-0.145
Mof_C 	C 	0.7432	0.3027	0.3619	0.174
Mof_H 	H 	0.8059	0.3125	0.3243	-0.06
Mof_H 	H 	0.7041	0.3809	0.3693	-0.044
Mof_C 	C 	0.8007	0.2609	0.4347	0.598
Mof_H 	H 	0.8343	0.1791	0.4281	0.19
Mof_C 	C 	0.9012	0.347	0.4587	-2.02
Mof_H 	H 	0.886	0.4279	0.4398	0.484
Mof_H 	H 	0.9791	0.3188	0.4398	2.718
Mof_N 	N 	0.8542	0.4142	0.682	-0.365
Mof_C 	C 	0.7862	0.3455	0.6629	0.052
Mof_C 	C 	0.6996	0.2568	0.638	-0.348
Mof_H 	H 	0.6907	0.1941	0.6757	0.276
Mof_H 	H 	0.621	0.2954	0.6311	0.167
Mof_C 	C 	0.7405	0.1994	0.565	-0.561
Mof_H 	H 	0.822	0.1647	0.5715	-0.173
Mof_C 	C 	0.6536	0.1001	0.5408	1.689
Mof_H 	H 	0.5725	0.1163	0.5597	-0.352
Mof_H 	H 	0.6804	0.0218	0.5597	-2.621
Mof_N 	N 	0.9142	0.3521	0.8182	-0.389
Mof_C 	C 	0.8449	0.2839	0.8364	-0.103
Mof_C 	C 	0.7568	0.1973	0.8619	-0.033
Mof_H 	H 	0.6941	0.1875	0.8243	0.061
Mof_H 	H 	0.7959	0.1191	0.8693	0.096
Mof_C 	C 	0.6993	0.2391	0.9347	0.058
Mof_H 	H 	0.6657	0.3209	0.9281	0.013
Mof_C 	C 	0.5988	0.153	0.9587	-0.206
Mof_H 	H 	0.614	0.0721	0.9398	0.232
Mof_H 	H 	0.5209	0.1812	0.9398	0.085
Mof_N 	N 	0.3542	0.9142	0.182	-0.401
Mof_C 	C 	0.2862	0.8455	0.1629	-0.071
Mof_C 	C 	0.1996	0.7568	0.138	-0.049
Mof_H 	H 	0.1907	0.6941	0.1757	0.068
Mof_H 	H 	0.121	0.7954	0.1311	0.102
Mof_C 	C 	0.2405	0.6994	0.065	0.062
Mof_H 	H 	0.322	0.6647	0.0715	0.011
Mof_C 	C 	0.1536	0.6001	0.0408	-0.235
Mof_H 	H 	0.0725	0.6163	0.0597	0.235
Mof_H 	H 	0.1804	0.5218	0.0597	0.091
Mof_N 	N 	0.4142	0.8521	0.3182	-0.355
Mof_C 	C 	0.3449	0.7839	0.3364	0.036
Mof_C 	C 	0.2568	0.6973	0.3619	-0.335
Mof_H 	H 	0.1941	0.6875	0.3243	0.262
Mof_H 	H 	0.2959	0.6191	0.3693	0.156
Mof_C 	C 	0.1993	0.7391	0.4347	-0.55
Mof_H 	H 	0.1657	0.8209	0.4281	-0.178
Mof_C 	C 	0.0988	0.653	0.4587	1.697
Mof_H 	H 	0.114	0.5721	0.4398	-0.361
Mof_H 	H 	0.0209	0.6812	0.4398	-2.624
Mof_Ag	Ag	0.5	0	0.25	1.712
Mof_Ag	Ag	7.01476e-33	0.5	0.25	1.712
Mof_Ag	Ag	0.5	0	0.75	1.713
Mof_Ag	Ag	1.55577e-32	0.5	0.75	1.713
Mof_C 	C 	0.284	0.2586	0.5	0.479
Mof_H 	H 	0.3344	0.1862	0.5	-0.751
Mof_H 	H 	0.3358	0.33	0.5	-0.08
Mof_C 	C 	0.784	0.7586	-0	-0.058
Mof_H 	H 	0.8344	0.6862	-0	0.062
Mof_H 	H 	0.8358	0.83	-0	-0.042
Mof_C 	C 	0.716	0.7414	0.5	-0.694
Mof_H 	H 	0.6656	0.8138	0.5	1.014
Mof_H 	H 	0.6642	0.67	0.5	0.134
Mof_C 	C 	0.216	0.2414	-0	-0.165
Mof_H 	H 	0.1656	0.3138	-0	0.191
Mof_H 	H 	0.1642	0.17	-0	0.095
Mof_C 	C 	0.7414	0.284	0.5	0.35
Mof_H 	H 	0.8138	0.3344	0.5	0.572
Mof_H 	H 	0.67	0.3358	0.5	0.051
Mof_C 	C 	0.2414	0.784	-0	-0.124
Mof_H 	H 	0.3138	0.8344	-0	0.088
Mof_H 	H 	0.17	0.8358	-0	0.031
Mof_C 	C 	0.2586	0.716	0.5	-0.565
Mof_H 	H 	0.1862	0.6656	0.5	-0.308
Mof_H 	H 	0.33	0.6642	0.5	0.003
Mof_C 	C 	0.7586	0.216	-0	-0.099
Mof_H 	H 	0.6862	0.1656	-0	0.165
Mof_H 	H 	0.83	0.1642	-0	0.022
Mof_C 	C 	0.239	0.217	-0	-0.165
Mof_H 	H 	0.3108	0.1653	-0	0.186
Mof_H 	H 	0.167	0.1655	-0	0.097
Mof_C 	C 	0.739	0.717	0.5	-0.698
Mof_H 	H 	0.8108	0.6653	0.5	0.981
Mof_H 	H 	0.667	0.6655	0.5	0.163
Mof_C 	C 	0.761	0.783	-0	-0.057
Mof_H 	H 	0.6892	0.8347	-0	0.06
Mof_H 	H 	0.833	0.8345	-0	-0.033
Mof_C 	C 	0.261	0.283	0.5	0.484
Mof_H 	H 	0.1892	0.3347	0.5	-0.725
Mof_H 	H 	0.333	0.3345	0.5	-0.098
Mof_C 	C 	0.783	0.239	-0	-0.124
Mof_H 	H 	0.8347	0.3108	-0	0.087
Mof_H 	H 	0.8345	0.167	-0	0.038
Mof_C 	C 	0.283	0.739	0.5	0.36
Mof_H 	H 	0.3347	0.8108	0.5	0.545
Mof_H 	H 	0.3345	0.667	0.5	0.052
Mof_C 	C 	0.217	0.761	-0	-0.098
Mof_H 	H 	0.1653	0.6892	-0	0.159
Mof_H 	H 	0.1655	0.833	-0	0.026
Mof_C 	C 	0.717	0.261	0.5	-0.575
Mof_H 	H 	0.6653	0.1892	0.5	-0.289
Mof_H 	H 	0.6655	0.333	0.5	0.013
_end
