# CIF file generated by openbabel 2.4.1, see http://openbabel.sf.net
data_I
_chemical_name_common 'image0'
_cell_length_a 17.784
_cell_length_b 17.784
_cell_length_c 53.14
_cell_angle_alpha 90
_cell_angle_beta 90
_cell_angle_gamma 120
_space_group_name_H-M_alt 'P 1'
_space_group_name_Hall 'P 1'
loop_
    _symmetry_equiv_pos_as_xyz
    x,y,z
loop_
    _atom_site_label
    _atom_site_type_symbol
    _atom_site_fract_x
    _atom_site_fract_y
    _atom_site_fract_z
    _atom_site_occupancy
    O1      O    0.75650   0.43660   0.35470   1.000
    C1      C    0.75800   0.48730   0.36950   1.000
    O2      O    0.91110   0.90150   0.36150   1.000
    C2      C    0.91200   0.85120   0.34360   1.000
    O3      O    0.42317   0.76993   0.68803   1.000
    C3      C    0.42467   0.82063   0.70283   1.000
    O4      O    0.57777   0.23483   0.69483   1.000
    C4      C    0.57867   0.18453   0.67693   1.000
    O5      O    0.08983   0.10327   0.02137   1.000
    C5      C    0.09133   0.15397   0.03617   1.000
    O6      O    0.24443   0.56817   0.02817   1.000
    C6      C    0.24533   0.51787   0.01027   1.000
    O7      O    0.56340   0.31990   0.35470   1.000
    C7      C    0.51270   0.27070   0.36950   1.000
    O8      O    0.09850   0.00960   0.36150   1.000
    C8      C    0.14880   0.06080   0.34360   1.000
    O9      O    0.23007   0.65323   0.68803   1.000
    C9      C    0.17937   0.60403   0.70283   1.000
    O10     O    0.76517   0.34293   0.69483   1.000
    C10     C    0.81547   0.39413   0.67693   1.000
    O11     O    0.89673   0.98657   0.02137   1.000
    C11     C    0.84603   0.93737   0.03617   1.000
    O12     O    0.43183   0.67627   0.02817   1.000
    C12     C    0.48213   0.72747   0.01027   1.000
    O13     O    0.68010   0.24350   0.35470   1.000
    C13     C    0.72930   0.24200   0.36950   1.000
    O14     O    0.99040   0.08890   0.36150   1.000
    C14     C    0.93920   0.08800   0.34360   1.000
    O15     O    0.34677   0.57683   0.68803   1.000
    C15     C    0.39597   0.57533   0.70283   1.000
    O16     O    0.65707   0.42223   0.69483   1.000
    C16     C    0.60587   0.42133   0.67693   1.000
    O17     O    0.01343   0.91017   0.02137   1.000
    C17     C    0.06263   0.90867   0.03617   1.000
    O18     O    0.32373   0.75557   0.02817   1.000
    C18     C    0.27253   0.75467   0.01027   1.000
    O19     O    0.43660   0.75650   0.64530   1.000
    C19     C    0.48730   0.75800   0.63050   1.000
    O20     O    0.90150   0.91110   0.63850   1.000
    C20     C    0.85120   0.91200   0.65640   1.000
    O21     O    0.10327   0.08983   0.97863   1.000
    C21     C    0.15397   0.09133   0.96383   1.000
    O22     O    0.56817   0.24443   0.97183   1.000
    C22     C    0.51787   0.24533   0.98973   1.000
    O23     O    0.76993   0.42317   0.31197   1.000
    C23     C    0.82063   0.42467   0.29717   1.000
    O24     O    0.23483   0.57777   0.30517   1.000
    C24     C    0.18453   0.57867   0.32307   1.000
    O25     O    0.31990   0.56340   0.64530   1.000
    C25     C    0.27070   0.51270   0.63050   1.000
    O26     O    0.00960   0.09850   0.63850   1.000
    C26     C    0.06080   0.14880   0.65640   1.000
    O27     O    0.98657   0.89673   0.97863   1.000
    C27     C    0.93737   0.84603   0.96383   1.000
    O28     O    0.67627   0.43183   0.97183   1.000
    C28     C    0.72747   0.48213   0.98973   1.000
    O29     O    0.65323   0.23007   0.31197   1.000
    C29     C    0.60403   0.17937   0.29717   1.000
    O30     O    0.34293   0.76517   0.30517   1.000
    C30     C    0.39413   0.81547   0.32307   1.000
    O31     O    0.24350   0.68010   0.64530   1.000
    C31     C    0.24200   0.72930   0.63050   1.000
    O32     O    0.08890   0.99040   0.63850   1.000
    C32     C    0.08800   0.93920   0.65640   1.000
    O33     O    0.91017   0.01343   0.97863   1.000
    C33     C    0.90867   0.06263   0.96383   1.000
    O34     O    0.75557   0.32373   0.97183   1.000
    C34     C    0.75467   0.27253   0.98973   1.000
    O35     O    0.57683   0.34677   0.31197   1.000
    C35     C    0.57533   0.39597   0.29717   1.000
    O36     O    0.42223   0.65707   0.30517   1.000
    C36     C    0.42133   0.60587   0.32307   1.000
    O37     O    0.24350   0.56340   0.64530   1.000
    C37     C    0.24200   0.51270   0.63050   1.000
    O38     O    0.08890   0.09850   0.63850   1.000
    C38     C    0.08800   0.14880   0.65640   1.000
    O39     O    0.91017   0.89673   0.97863   1.000
    C39     C    0.90867   0.84603   0.96383   1.000
    O40     O    0.75557   0.43183   0.97183   1.000
    C40     C    0.75467   0.48213   0.98973   1.000
    O41     O    0.57683   0.23007   0.31197   1.000
    C41     C    0.57533   0.17937   0.29717   1.000
    O42     O    0.42223   0.76517   0.30517   1.000
    C42     C    0.42133   0.81547   0.32307   1.000
    O43     O    0.43660   0.68010   0.64530   1.000
    C43     C    0.48730   0.72930   0.63050   1.000
    O44     O    0.90150   0.99040   0.63850   1.000
    C44     C    0.85120   0.93920   0.65640   1.000
    O45     O    0.10327   0.01343   0.97863   1.000
    C45     C    0.15397   0.06263   0.96383   1.000
    O46     O    0.56817   0.32373   0.97183   1.000
    C46     C    0.51787   0.27253   0.98973   1.000
    O47     O    0.76993   0.34677   0.31197   1.000
    C47     C    0.82063   0.39597   0.29717   1.000
    O48     O    0.23483   0.65707   0.30517   1.000
    C48     C    0.18453   0.60587   0.32307   1.000
    O49     O    0.31990   0.75650   0.64530   1.000
    C49     C    0.27070   0.75800   0.63050   1.000
    O50     O    0.00960   0.91110   0.63850   1.000
    C50     C    0.06080   0.91200   0.65640   1.000
    O51     O    0.98657   0.08983   0.97863   1.000
    C51     C    0.93737   0.09133   0.96383   1.000
    O52     O    0.67627   0.24443   0.97183   1.000
    C52     C    0.72747   0.24533   0.98973   1.000
    O53     O    0.65323   0.42317   0.31197   1.000
    C53     C    0.60403   0.42467   0.29717   1.000
    O54     O    0.34293   0.57777   0.30517   1.000
    C54     C    0.39413   0.57867   0.32307   1.000
    O55     O    0.56340   0.24350   0.35470   1.000
    C55     C    0.51270   0.24200   0.36950   1.000
    O56     O    0.09850   0.08890   0.36150   1.000
    C56     C    0.14880   0.08800   0.34360   1.000
    O57     O    0.23007   0.57683   0.68803   1.000
    C57     C    0.17937   0.57533   0.70283   1.000
    O58     O    0.76517   0.42223   0.69483   1.000
    C58     C    0.81547   0.42133   0.67693   1.000
    O59     O    0.89673   0.91017   0.02137   1.000
    C59     C    0.84603   0.90867   0.03617   1.000
    O60     O    0.43183   0.75557   0.02817   1.000
    C60     C    0.48213   0.75467   0.01027   1.000
    O61     O    0.68010   0.43660   0.35470   1.000
    C61     C    0.72930   0.48730   0.36950   1.000
    O62     O    0.99040   0.90150   0.36150   1.000
    C62     C    0.93920   0.85120   0.34360   1.000
    O63     O    0.34677   0.76993   0.68803   1.000
    C63     C    0.39597   0.82063   0.70283   1.000
    O64     O    0.65707   0.23483   0.69483   1.000
    C64     C    0.60587   0.18453   0.67693   1.000
    O65     O    0.01343   0.10327   0.02137   1.000
    C65     C    0.06263   0.15397   0.03617   1.000
    O66     O    0.32373   0.56817   0.02817   1.000
    C66     C    0.27253   0.51787   0.01027   1.000
    O67     O    0.75650   0.31990   0.35470   1.000
    C67     C    0.75800   0.27070   0.36950   1.000
    O68     O    0.91110   0.00960   0.36150   1.000
    C68     C    0.91200   0.06080   0.34360   1.000
    O69     O    0.42317   0.65323   0.68803   1.000
    C69     C    0.42467   0.60403   0.70283   1.000
    O70     O    0.57777   0.34293   0.69483   1.000
    C70     C    0.57867   0.39413   0.67693   1.000
    O71     O    0.08983   0.98657   0.02137   1.000
    C71     C    0.09133   0.93737   0.03617   1.000
    O72     O    0.24443   0.67627   0.02817   1.000
    C72     C    0.24533   0.72747   0.01027   1.000
    Zn1     Zn   0.66667   0.33333   0.33333   1.000
    Zn2     Zn   0.33333   0.66667   0.66667   1.000
    Zn3     Zn   0.00000   0.00000   0.00000   1.000
    Zn4     Zn   0.66667   0.33333   0.39947   1.000
    Zn5     Zn   0.33333   0.66667   0.73280   1.000
    Zn6     Zn   0.00000   0.00000   0.06614   1.000
    Zn7     Zn   0.33333   0.66667   0.60053   1.000
    Zn8     Zn   0.00000   0.00000   0.93386   1.000
    Zn9     Zn   0.66667   0.33333   0.26720   1.000
    Zn10    Zn   0.00000   0.00000   0.31763   1.000
    N1      N    0.00000   0.00000   0.10490   1.000
    C73     C    0.00000   0.00000   0.15880   1.000
    C74     C    0.00000   0.00000   0.22810   1.000
    N2      N    0.00000   0.00000   0.28100   1.000
    Zn11    Zn   0.00000   0.00000   0.38364   1.000
    Zn12    Zn   0.66667   0.33333   0.65096   1.000
    N3      N    0.66667   0.33333   0.43823   1.000
    C75     C    0.66667   0.33333   0.49213   1.000
    C76     C    0.66667   0.33333   0.56143   1.000
    N4      N    0.66667   0.33333   0.61433   1.000
    Zn13    Zn   0.66667   0.33333   0.71697   1.000
    Zn14    Zn   0.33333   0.66667   0.98430   1.000
    N5      N    0.33333   0.66667   0.77157   1.000
    C77     C    0.33333   0.66667   0.82547   1.000
    C78     C    0.33333   0.66667   0.89477   1.000
    N6      N    0.33333   0.66667   0.94767   1.000
    Zn15    Zn   0.33333   0.66667   0.05031   1.000
    Zn16    Zn   0.00000   0.00000   0.68237   1.000
    N7      N    0.00000   0.00000   0.89510   1.000
    C79     C    0.00000   0.00000   0.84120   1.000
    C80     C    0.00000   0.00000   0.77190   1.000
    N8      N    0.00000   0.00000   0.71900   1.000
    Zn17    Zn   0.00000   0.00000   0.61636   1.000
    Zn18    Zn   0.66667   0.33333   0.01570   1.000
    N9      N    0.66667   0.33333   0.22843   1.000
    C81     C    0.66667   0.33333   0.17453   1.000
    C82     C    0.66667   0.33333   0.10523   1.000
    N10     N    0.66667   0.33333   0.05233   1.000
    Zn19    Zn   0.66667   0.33333   0.94969   1.000
    Zn20    Zn   0.33333   0.66667   0.34904   1.000
    N11     N    0.33333   0.66667   0.56177   1.000
    C83     C    0.33333   0.66667   0.50787   1.000
    C84     C    0.33333   0.66667   0.43857   1.000
    N12     N    0.33333   0.66667   0.38567   1.000
    Zn21    Zn   0.33333   0.66667   0.28303   1.000
    O73     O    0.93965   0.87930   0.32390   1.000
    O74     O    0.72945   0.45890   0.39190   1.000
    C85     C    0.87835   0.75670   0.35060   1.000
    C86     C    0.86780   0.73560   0.37580   1.000
    H1      H    0.88960   0.77920   0.38790   1.000
    C87     C    0.82470   0.64940   0.38310   1.000
    C88     C    0.79225   0.58450   0.36620   1.000
    C89     C    0.80160   0.60320   0.34050   1.000
    H2      H    0.77945   0.55890   0.32860   1.000
    C90     C    0.84460   0.68920   0.33330   1.000
    O75     O    0.81155   0.62310   0.40820   1.000
    O76     O    0.85700   0.71400   0.30760   1.000
    O77     O    0.60632   0.21263   0.65723   1.000
    O78     O    0.39612   0.79223   0.72523   1.000
    C91     C    0.54502   0.09003   0.68393   1.000
    C92     C    0.53447   0.06893   0.70913   1.000
    H3      H    0.55627   0.11253   0.72123   1.000
    C93     C    0.49137   0.98273   0.71643   1.000
    C94     C    0.45892   0.91783   0.69953   1.000
    C95     C    0.46827   0.93653   0.67383   1.000
    H4      H    0.44612   0.89223   0.66193   1.000
    C96     C    0.51127   0.02253   0.66663   1.000
    O79     O    0.47822   0.95643   0.74153   1.000
    O80     O    0.52367   0.04733   0.64093   1.000
    O81     O    0.27298   0.54597   0.99057   1.000
    O82     O    0.06278   0.12557   0.05857   1.000
    C97     C    0.21168   0.42337   0.01727   1.000
    C98     C    0.20113   0.40227   0.04247   1.000
    H5      H    0.22293   0.44587   0.05457   1.000
    C99     C    0.15803   0.31607   0.04977   1.000
    C100    C    0.12558   0.25117   0.03287   1.000
    C101    C    0.13493   0.26987   0.00717   1.000
    H6      H    0.11278   0.22557   0.99527   1.000
    C102    C    0.17793   0.35587   0.99997   1.000
    O83     O    0.14488   0.28977   0.07487   1.000
    O84     O    0.19033   0.38067   0.97427   1.000
    O85     O    0.12070   0.06035   0.32390   1.000
    O86     O    0.54110   0.27055   0.39190   1.000
    C103    C    0.24330   0.12165   0.35060   1.000
    C104    C    0.26440   0.13220   0.37580   1.000
    H7      H    0.22080   0.11040   0.38790   1.000
    C105    C    0.35060   0.17530   0.38310   1.000
    C106    C    0.41550   0.20775   0.36620   1.000
    C107    C    0.39680   0.19840   0.34050   1.000
    H8      H    0.44110   0.22055   0.32860   1.000
    C108    C    0.31080   0.15540   0.33330   1.000
    O87     O    0.37690   0.18845   0.40820   1.000
    O88     O    0.28600   0.14300   0.30760   1.000
    O89     O    0.78737   0.39368   0.65723   1.000
    O90     O    0.20777   0.60388   0.72523   1.000
    C109    C    0.90997   0.45498   0.68393   1.000
    C110    C    0.93107   0.46553   0.70913   1.000
    H9      H    0.88747   0.44373   0.72123   1.000
    C111    C    0.01727   0.50863   0.71643   1.000
    C112    C    0.08217   0.54108   0.69953   1.000
    C113    C    0.06347   0.53173   0.67383   1.000
    H10     H    0.10777   0.55388   0.66193   1.000
    C114    C    0.97747   0.48873   0.66663   1.000
    O91     O    0.04357   0.52178   0.74153   1.000
    O92     O    0.95267   0.47633   0.64093   1.000
    O93     O    0.45403   0.72702   0.99057   1.000
    O94     O    0.87443   0.93722   0.05857   1.000
    C115    C    0.57663   0.78832   0.01727   1.000
    C116    C    0.59773   0.79887   0.04247   1.000
    H11     H    0.55413   0.77707   0.05457   1.000
    C117    C    0.68393   0.84197   0.04977   1.000
    C118    C    0.74883   0.87442   0.03287   1.000
    C119    C    0.73013   0.86507   0.00717   1.000
    H12     H    0.77443   0.88722   0.99527   1.000
    C120    C    0.64413   0.82207   0.99997   1.000
    O95     O    0.71023   0.85512   0.07487   1.000
    O96     O    0.61933   0.80967   0.97427   1.000
    O97     O    0.93965   0.06035   0.32390   1.000
    O98     O    0.72945   0.27055   0.39190   1.000
    C121    C    0.87835   0.12165   0.35060   1.000
    C122    C    0.86780   0.13220   0.37580   1.000
    H13     H    0.88960   0.11040   0.38790   1.000
    C123    C    0.82470   0.17530   0.38310   1.000
    C124    C    0.79225   0.20775   0.36620   1.000
    C125    C    0.80160   0.19840   0.34050   1.000
    H14     H    0.77945   0.22055   0.32860   1.000
    C126    C    0.84460   0.15540   0.33330   1.000
    O99     O    0.81155   0.18845   0.40820   1.000
    O100    O    0.85700   0.14300   0.30760   1.000
    O101    O    0.60632   0.39368   0.65723   1.000
    O102    O    0.39612   0.60388   0.72523   1.000
    C127    C    0.54502   0.45498   0.68393   1.000
    C128    C    0.53447   0.46553   0.70913   1.000
    H15     H    0.55627   0.44373   0.72123   1.000
    C129    C    0.49137   0.50863   0.71643   1.000
    C130    C    0.45892   0.54108   0.69953   1.000
    C131    C    0.46827   0.53173   0.67383   1.000
    H16     H    0.44612   0.55388   0.66193   1.000
    C132    C    0.51127   0.48873   0.66663   1.000
    O103    O    0.47822   0.52178   0.74153   1.000
    O104    O    0.52367   0.47633   0.64093   1.000
    O105    O    0.27298   0.72702   0.99057   1.000
    O106    O    0.06278   0.93722   0.05857   1.000
    C133    C    0.21168   0.78832   0.01727   1.000
    C134    C    0.20113   0.79887   0.04247   1.000
    H17     H    0.22293   0.77707   0.05457   1.000
    C135    C    0.15803   0.84197   0.04977   1.000
    C136    C    0.12558   0.87442   0.03287   1.000
    C137    C    0.13493   0.86507   0.00717   1.000
    H18     H    0.11278   0.88722   0.99527   1.000
    C138    C    0.17793   0.82207   0.99997   1.000
    O107    O    0.14488   0.85512   0.07487   1.000
    O108    O    0.19033   0.80967   0.97427   1.000
    O109    O    0.87930   0.93965   0.67610   1.000
    O110    O    0.45890   0.72945   0.60810   1.000
    C139    C    0.75670   0.87835   0.64940   1.000
    C140    C    0.73560   0.86780   0.62420   1.000
    H19     H    0.77920   0.88960   0.61210   1.000
    C141    C    0.64940   0.82470   0.61690   1.000
    C142    C    0.58450   0.79225   0.63380   1.000
    C143    C    0.60320   0.80160   0.65950   1.000
    H20     H    0.55890   0.77945   0.67140   1.000
    C144    C    0.68920   0.84460   0.66670   1.000
    O111    O    0.62310   0.81155   0.59180   1.000
    O112    O    0.71400   0.85700   0.69240   1.000
    O113    O    0.54597   0.27298   0.00943   1.000
    O114    O    0.12557   0.06278   0.94143   1.000
    C145    C    0.42337   0.21168   0.98273   1.000
    C146    C    0.40227   0.20113   0.95753   1.000
    H21     H    0.44587   0.22293   0.94543   1.000
    C147    C    0.31607   0.15803   0.95023   1.000
    C148    C    0.25117   0.12558   0.96713   1.000
    C149    C    0.26987   0.13493   0.99283   1.000
    H22     H    0.22557   0.11278   0.00473   1.000
    C150    C    0.35587   0.17793   0.00003   1.000
    O115    O    0.28977   0.14488   0.92513   1.000
    O116    O    0.38067   0.19033   0.02573   1.000
    O117    O    0.21263   0.60632   0.34277   1.000
    O118    O    0.79223   0.39612   0.27477   1.000
    C151    C    0.09003   0.54502   0.31607   1.000
    C152    C    0.06893   0.53447   0.29087   1.000
    H23     H    0.11253   0.55627   0.27877   1.000
    C153    C    0.98273   0.49137   0.28357   1.000
    C154    C    0.91783   0.45892   0.30047   1.000
    C155    C    0.93653   0.46827   0.32617   1.000
    H24     H    0.89223   0.44612   0.33807   1.000
    C156    C    0.02253   0.51127   0.33337   1.000
    O119    O    0.95643   0.47822   0.25847   1.000
    O120    O    0.04733   0.52367   0.35907   1.000
    O121    O    0.06035   0.12070   0.67610   1.000
    O122    O    0.27055   0.54110   0.60810   1.000
    C157    C    0.12165   0.24330   0.64940   1.000
    C158    C    0.13220   0.26440   0.62420   1.000
    H25     H    0.11040   0.22080   0.61210   1.000
    C159    C    0.17530   0.35060   0.61690   1.000
    C160    C    0.20775   0.41550   0.63380   1.000
    C161    C    0.19840   0.39680   0.65950   1.000
    H26     H    0.22055   0.44110   0.67140   1.000
    C162    C    0.15540   0.31080   0.66670   1.000
    O123    O    0.18845   0.37690   0.59180   1.000
    O124    O    0.14300   0.28600   0.69240   1.000
    O125    O    0.72702   0.45403   0.00943   1.000
    O126    O    0.93722   0.87443   0.94143   1.000
    C163    C    0.78832   0.57663   0.98273   1.000
    C164    C    0.79887   0.59773   0.95753   1.000
    H27     H    0.77707   0.55413   0.94543   1.000
    C165    C    0.84197   0.68393   0.95023   1.000
    C166    C    0.87442   0.74883   0.96713   1.000
    C167    C    0.86507   0.73013   0.99283   1.000
    H28     H    0.88722   0.77443   0.00473   1.000
    C168    C    0.82207   0.64413   0.00003   1.000
    O127    O    0.85512   0.71023   0.92513   1.000
    O128    O    0.80967   0.61933   0.02573   1.000
    O129    O    0.39368   0.78737   0.34277   1.000
    O130    O    0.60388   0.20777   0.27477   1.000
    C169    C    0.45498   0.90997   0.31607   1.000
    C170    C    0.46553   0.93107   0.29087   1.000
    H29     H    0.44373   0.88747   0.27877   1.000
    C171    C    0.50863   0.01727   0.28357   1.000
    C172    C    0.54108   0.08217   0.30047   1.000
    C173    C    0.53173   0.06347   0.32617   1.000
    H30     H    0.55388   0.10777   0.33807   1.000
    C174    C    0.48873   0.97747   0.33337   1.000
    O131    O    0.52178   0.04357   0.25847   1.000
    O132    O    0.47633   0.95267   0.35907   1.000
    O133    O    0.06035   0.93965   0.67610   1.000
    O134    O    0.27055   0.72945   0.60810   1.000
    C175    C    0.12165   0.87835   0.64940   1.000
    C176    C    0.13220   0.86780   0.62420   1.000
    H31     H    0.11040   0.88960   0.61210   1.000
    C177    C    0.17530   0.82470   0.61690   1.000
    C178    C    0.20775   0.79225   0.63380   1.000
    C179    C    0.19840   0.80160   0.65950   1.000
    H32     H    0.22055   0.77945   0.67140   1.000
    C180    C    0.15540   0.84460   0.66670   1.000
    O135    O    0.18845   0.81155   0.59180   1.000
    O136    O    0.14300   0.85700   0.69240   1.000
    O137    O    0.72702   0.27298   0.00943   1.000
    O138    O    0.93722   0.06278   0.94143   1.000
    C181    C    0.78832   0.21168   0.98273   1.000
    C182    C    0.79887   0.20113   0.95753   1.000
    H33     H    0.77707   0.22293   0.94543   1.000
    C183    C    0.84197   0.15803   0.95023   1.000
    C184    C    0.87442   0.12558   0.96713   1.000
    C185    C    0.86507   0.13493   0.99283   1.000
    H34     H    0.88722   0.11278   0.00473   1.000
    C186    C    0.82207   0.17793   0.00003   1.000
    O139    O    0.85512   0.14488   0.92513   1.000
    O140    O    0.80967   0.19033   0.02573   1.000
    O141    O    0.39368   0.60632   0.34277   1.000
    O142    O    0.60388   0.39612   0.27477   1.000
    C187    C    0.45498   0.54502   0.31607   1.000
    C188    C    0.46553   0.53447   0.29087   1.000
    H35     H    0.44373   0.55627   0.27877   1.000
    C189    C    0.50863   0.49137   0.28357   1.000
    C190    C    0.54108   0.45892   0.30047   1.000
    C191    C    0.53173   0.46827   0.32617   1.000
    H36     H    0.55388   0.44612   0.33807   1.000
    C192    C    0.48873   0.51127   0.33337   1.000
    O143    O    0.52178   0.47822   0.25847   1.000
    O144    O    0.47633   0.52367   0.35907   1.000
    C193    C    0.03640   0.96360   0.11910   1.000
    C194    C    0.03660   0.96340   0.14460   1.000
    C195    C    0.96350   0.03650   0.11910   1.000
    C196    C    0.96380   0.03620   0.14470   1.000
    C197    C    0.70307   0.29693   0.45243   1.000
    C198    C    0.70327   0.29673   0.47793   1.000
    C199    C    0.63017   0.36983   0.45243   1.000
    C200    C    0.63047   0.36953   0.47803   1.000
    C201    C    0.36973   0.63027   0.78577   1.000
    C202    C    0.36993   0.63007   0.81127   1.000
    C203    C    0.29683   0.70317   0.78577   1.000
    C204    C    0.29713   0.70287   0.81137   1.000
    C205    C    0.03640   0.07280   0.11910   1.000
    C206    C    0.03660   0.07320   0.14460   1.000
    C207    C    0.96350   0.92700   0.11910   1.000
    C208    C    0.96380   0.92760   0.14470   1.000
    C209    C    0.70307   0.40613   0.45243   1.000
    C210    C    0.70327   0.40653   0.47793   1.000
    C211    C    0.63017   0.26033   0.45243   1.000
    C212    C    0.63047   0.26093   0.47803   1.000
    C213    C    0.36973   0.73947   0.78577   1.000
    C214    C    0.36993   0.73987   0.81127   1.000
    C215    C    0.29683   0.59367   0.78577   1.000
    C216    C    0.29713   0.59427   0.81137   1.000
    C217    C    0.92720   0.96360   0.11910   1.000
    C218    C    0.92680   0.96340   0.14460   1.000
    C219    C    0.07300   0.03650   0.11910   1.000
    C220    C    0.07240   0.03620   0.14470   1.000
    C221    C    0.59387   0.29693   0.45243   1.000
    C222    C    0.59347   0.29673   0.47793   1.000
    C223    C    0.73967   0.36983   0.45243   1.000
    C224    C    0.73907   0.36953   0.47803   1.000
    C225    C    0.26053   0.63027   0.78577   1.000
    C226    C    0.26013   0.63007   0.81127   1.000
    C227    C    0.40633   0.70317   0.78577   1.000
    C228    C    0.40573   0.70287   0.81137   1.000
    C229    C    0.96360   0.03640   0.88090   1.000
    C230    C    0.96340   0.03660   0.85540   1.000
    C231    C    0.03650   0.96350   0.88090   1.000
    C232    C    0.03620   0.96380   0.85530   1.000
    C233    C    0.63027   0.36973   0.21423   1.000
    C234    C    0.63007   0.36993   0.18873   1.000
    C235    C    0.70317   0.29683   0.21423   1.000
    C236    C    0.70287   0.29713   0.18863   1.000
    C237    C    0.29693   0.70307   0.54757   1.000
    C238    C    0.29673   0.70327   0.52207   1.000
    C239    C    0.36983   0.63017   0.54757   1.000
    C240    C    0.36953   0.63047   0.52197   1.000
    C241    C    0.07280   0.03640   0.88090   1.000
    C242    C    0.07320   0.03660   0.85540   1.000
    C243    C    0.92700   0.96350   0.88090   1.000
    C244    C    0.92760   0.96380   0.85530   1.000
    C245    C    0.73947   0.36973   0.21423   1.000
    C246    C    0.73987   0.36993   0.18873   1.000
    C247    C    0.59367   0.29683   0.21423   1.000
    C248    C    0.59427   0.29713   0.18863   1.000
    C249    C    0.40613   0.70307   0.54757   1.000
    C250    C    0.40653   0.70327   0.52207   1.000
    C251    C    0.26033   0.63017   0.54757   1.000
    C252    C    0.26093   0.63047   0.52197   1.000
    C253    C    0.96360   0.92720   0.88090   1.000
    C254    C    0.96340   0.92680   0.85540   1.000
    C255    C    0.03650   0.07300   0.88090   1.000
    C256    C    0.03620   0.07240   0.85530   1.000
    C257    C    0.63027   0.26053   0.21423   1.000
    C258    C    0.63007   0.26013   0.18873   1.000
    C259    C    0.70317   0.40633   0.21423   1.000
    C260    C    0.70287   0.40573   0.18863   1.000
    C261    C    0.29693   0.59387   0.54757   1.000
    C262    C    0.29673   0.59347   0.52207   1.000
    C263    C    0.36983   0.73967   0.54757   1.000
    C264    C    0.36953   0.73907   0.52197   1.000
    C265    C    0.03800   0.01900   0.18280   1.000
    C266    C    0.97630   0.98815   0.20180   1.000
    C267    C    0.07560   0.03780   0.24150   1.000
    C268    C    0.07410   0.03705   0.26730   1.000
    C269    C    0.92600   0.96300   0.26750   1.000
    C270    C    0.92440   0.96220   0.24190   1.000
    C271    C    0.70467   0.35233   0.51613   1.000
    C272    C    0.64297   0.32148   0.53513   1.000
    C273    C    0.74227   0.37113   0.57483   1.000
    C274    C    0.74077   0.37038   0.60063   1.000
    C275    C    0.59267   0.29633   0.60083   1.000
    C276    C    0.59107   0.29553   0.57523   1.000
    C277    C    0.37133   0.68567   0.84947   1.000
    C278    C    0.30963   0.65482   0.86847   1.000
    C279    C    0.40893   0.70447   0.90817   1.000
    C280    C    0.40743   0.70372   0.93397   1.000
    C281    C    0.25933   0.62967   0.93417   1.000
    C282    C    0.25773   0.62887   0.90857   1.000
    C283    C    0.98100   0.01900   0.18280   1.000
    C284    C    0.01185   0.98815   0.20180   1.000
    C285    C    0.96220   0.03780   0.24150   1.000
    C286    C    0.96295   0.03705   0.26730   1.000
    C287    C    0.03700   0.96300   0.26750   1.000
    C288    C    0.03780   0.96220   0.24190   1.000
    C289    C    0.64767   0.35233   0.51613   1.000
    C290    C    0.67852   0.32148   0.53513   1.000
    C291    C    0.62887   0.37113   0.57483   1.000
    C292    C    0.62962   0.37038   0.60063   1.000
    C293    C    0.70367   0.29633   0.60083   1.000
    C294    C    0.70447   0.29553   0.57523   1.000
    C295    C    0.31433   0.68567   0.84947   1.000
    C296    C    0.34518   0.65482   0.86847   1.000
    C297    C    0.29553   0.70447   0.90817   1.000
    C298    C    0.29628   0.70372   0.93397   1.000
    C299    C    0.37033   0.62967   0.93417   1.000
    C300    C    0.37113   0.62887   0.90857   1.000
    C301    C    0.98100   0.96200   0.18280   1.000
    C302    C    0.01185   0.02370   0.20180   1.000
    C303    C    0.96220   0.92440   0.24150   1.000
    C304    C    0.96295   0.92590   0.26730   1.000
    C305    C    0.03700   0.07400   0.26750   1.000
    C306    C    0.03780   0.07560   0.24190   1.000
    C307    C    0.64767   0.29533   0.51613   1.000
    C308    C    0.67852   0.35703   0.53513   1.000
    C309    C    0.62887   0.25773   0.57483   1.000
    C310    C    0.62962   0.25923   0.60063   1.000
    C311    C    0.70367   0.40733   0.60083   1.000
    C312    C    0.70447   0.40893   0.57523   1.000
    C313    C    0.31433   0.62867   0.84947   1.000
    C314    C    0.34518   0.69037   0.86847   1.000
    C315    C    0.29553   0.59107   0.90817   1.000
    C316    C    0.29628   0.59257   0.93397   1.000
    C317    C    0.37033   0.74067   0.93417   1.000
    C318    C    0.37113   0.74227   0.90857   1.000
    C319    C    0.01900   0.03800   0.81720   1.000
    C320    C    0.98815   0.97630   0.79820   1.000
    C321    C    0.03780   0.07560   0.75850   1.000
    C322    C    0.03705   0.07410   0.73270   1.000
    C323    C    0.96300   0.92600   0.73250   1.000
    C324    C    0.96220   0.92440   0.75810   1.000
    C325    C    0.68567   0.37133   0.15053   1.000
    C326    C    0.65482   0.30963   0.13153   1.000
    C327    C    0.70447   0.40893   0.09183   1.000
    C328    C    0.70372   0.40743   0.06603   1.000
    C329    C    0.62967   0.25933   0.06583   1.000
    C330    C    0.62887   0.25773   0.09143   1.000
    C331    C    0.35233   0.70467   0.48387   1.000
    C332    C    0.32148   0.64297   0.46487   1.000
    C333    C    0.37113   0.74227   0.42517   1.000
    C334    C    0.37038   0.74077   0.39937   1.000
    C335    C    0.29633   0.59267   0.39917   1.000
    C336    C    0.29553   0.59107   0.42477   1.000
    C337    C    0.01900   0.98100   0.81720   1.000
    C338    C    0.98815   0.01185   0.79820   1.000
    C339    C    0.03780   0.96220   0.75850   1.000
    C340    C    0.03705   0.96295   0.73270   1.000
    C341    C    0.96300   0.03700   0.73250   1.000
    C342    C    0.96220   0.03780   0.75810   1.000
    C343    C    0.68567   0.31433   0.15053   1.000
    C344    C    0.65482   0.34518   0.13153   1.000
    C345    C    0.70447   0.29553   0.09183   1.000
    C346    C    0.70372   0.29628   0.06603   1.000
    C347    C    0.62967   0.37033   0.06583   1.000
    C348    C    0.62887   0.37113   0.09143   1.000
    C349    C    0.35233   0.64767   0.48387   1.000
    C350    C    0.32148   0.67852   0.46487   1.000
    C351    C    0.37113   0.62887   0.42517   1.000
    C352    C    0.37038   0.62962   0.39937   1.000
    C353    C    0.29633   0.70367   0.39917   1.000
    C354    C    0.29553   0.70447   0.42477   1.000
    C355    C    0.96200   0.98100   0.81720   1.000
    C356    C    0.02370   0.01185   0.79820   1.000
    C357    C    0.92440   0.96220   0.75850   1.000
    C358    C    0.92590   0.96295   0.73270   1.000
    C359    C    0.07400   0.03700   0.73250   1.000
    C360    C    0.07560   0.03780   0.75810   1.000
    C361    C    0.62867   0.31433   0.15053   1.000
    C362    C    0.69037   0.34518   0.13153   1.000
    C363    C    0.59107   0.29553   0.09183   1.000
    C364    C    0.59257   0.29628   0.06603   1.000
    C365    C    0.74067   0.37033   0.06583   1.000
    C366    C    0.74227   0.37113   0.09143   1.000
    C367    C    0.29533   0.64767   0.48387   1.000
    C368    C    0.35703   0.67852   0.46487   1.000
    C369    C    0.25773   0.62887   0.42517   1.000
    C370    C    0.25923   0.62962   0.39937   1.000
    C371    C    0.40733   0.70367   0.39917   1.000
    C372    C    0.40893   0.70447   0.42477   1.000
