# CIF file generated by openbabel 2.4.1, see http://openbabel.sf.net
data_I
_chemical_name_common 'image0'
_cell_length_a 15.2597
_cell_length_b 15.2597
_cell_length_c 19.0917
_cell_angle_alpha 90
_cell_angle_beta 90
_cell_angle_gamma 90
_space_group_name_H-M_alt 'P 1'
_space_group_name_Hall 'P 1'
loop_
    _symmetry_equiv_pos_as_xyz
    x,y,z
loop_
    _atom_site_label
    _atom_site_type_symbol
    _atom_site_fract_x
    _atom_site_fract_y
    _atom_site_fract_z
    _atom_site_occupancy
    O1      O    0.57580   0.60790   0.80757   1.000
    O2      O    0.57790   0.60640   0.69030   1.000
    O3      O    0.89140   0.92390   0.69135   1.000
    O4      O    0.89370   0.92280   0.80711   1.000
    C1      C    0.60090   0.63600   0.74930   1.000
    C2      C    0.86370   0.89800   0.75070   1.000
    C3      C    0.46780   0.41780   0.96160   1.000
    H1      H    0.50000   0.36950   0.94100   1.000
    H2      H    0.40650   0.41080   0.94940   1.000
    C4      C    0.43920   0.57090   0.95940   1.000
    H3      H    0.38240   0.56570   0.93690   1.000
    H4      H    0.53690   0.37180   0.94830   1.000
    C5      C    0.58510   0.52230   0.95930   1.000
    H5      H    0.39540   0.42320   0.93830   1.000
    H6      H    0.37330   0.52310   0.94680   1.000
    C6      C    0.58610   0.47710   0.54110   1.000
    H7      H    0.39410   0.57740   0.56200   1.000
    H8      H    0.37210   0.47740   0.55290   1.000
    C7      C    0.44040   0.42810   0.54110   1.000
    H9      H    0.38390   0.43120   0.56430   1.000
    H10     H    0.53400   0.62880   0.55080   1.000
    C8      C    0.46690   0.58020   0.54030   1.000
    H11     H    0.49770   0.62890   0.56170   1.000
    H12     H    0.40530   0.58560   0.55230   1.000
    C9      C    0.66760   0.71160   0.75120   1.000
    C10     C    0.64950   0.78040   0.69530   1.000
    H13     H    0.59110   0.80410   0.70160   1.000
    H14     H    0.65240   0.75360   0.64930   1.000
    C11     C    0.75810   0.66930   0.73470   1.000
    H15     H    0.77540   0.63070   0.77270   1.000
    H16     H    0.75450   0.63500   0.69210   1.000
    C12     C    0.67330   0.75270   0.82310   1.000
    H17     H    0.68360   0.70790   0.85820   1.000
    H18     H    0.61880   0.78240   0.83420   1.000
    C13     C    0.79240   0.82980   0.75050   1.000
    C14     C    0.71820   0.85580   0.70020   1.000
    H19     H    0.74220   0.86760   0.65420   1.000
    H20     H    0.69000   0.90870   0.71700   1.000
    C15     C    0.82570   0.74310   0.72600   1.000
    H21     H    0.87810   0.72820   0.75220   1.000
    H22     H    0.84180   0.74750   0.67700   1.000
    C16     C    0.74980   0.81890   0.82240   1.000
    H23     H    0.72830   0.87540   0.83800   1.000
    H24     H    0.79400   0.79970   0.85560   1.000
    C17     C    0.29150   0.32910   0.25110   1.000
    C18     C    0.27100   0.30060   0.32580   1.000
    C19     C    0.31830   0.24560   0.21070   1.000
    C20     C    0.20800   0.36410   0.21980   1.000
    C21     C    0.17800   0.25640   0.32300   1.000
    C22     C    0.17110   0.25470   0.76790   1.000
    C23     C    0.14970   0.28520   0.19800   1.000
    C24     C    0.16830   0.21300   0.25150   1.000
    H25     H    0.27050   0.35080   0.35700   1.000
    H26     H    0.31460   0.25920   0.34240   1.000
    H27     H    0.37810   0.22960   0.22220   1.000
    H28     H    0.31470   0.25590   0.16060   1.000
    H29     H    0.22120   0.40000   0.17920   1.000
    H30     H    0.17740   0.40010   0.25380   1.000
    H31     H    0.17260   0.21300   0.35990   1.000
    H32     H    0.13260   0.30020   0.32950   1.000
    H33     H    0.13060   0.24670   0.80650   1.000
    H34     H    0.13900   0.27820   0.72830   1.000
    H35     H    0.08820   0.30140   0.19900   1.000
    H36     H    0.16450   0.26570   0.15110   1.000
    O5      O    0.42420   0.39210   0.80757   1.000
    O6      O    0.42210   0.39360   0.69030   1.000
    O7      O    0.10860   0.07610   0.69135   1.000
    O8      O    0.10630   0.07720   0.80711   1.000
    C25     C    0.39910   0.36400   0.74930   1.000
    C26     C    0.13630   0.10200   0.75070   1.000
    C27     C    0.53220   0.58220   0.96160   1.000
    H37     H    0.50000   0.63050   0.94100   1.000
    H38     H    0.59350   0.58920   0.94940   1.000
    C28     C    0.56080   0.42910   0.95940   1.000
    H39     H    0.61760   0.43430   0.93690   1.000
    H40     H    0.46310   0.62820   0.94830   1.000
    C29     C    0.41490   0.47770   0.95930   1.000
    H41     H    0.60460   0.57680   0.93830   1.000
    H42     H    0.62670   0.47690   0.94680   1.000
    C30     C    0.41390   0.52290   0.54110   1.000
    H43     H    0.60590   0.42260   0.56200   1.000
    H44     H    0.62790   0.52260   0.55290   1.000
    C31     C    0.55960   0.57190   0.54110   1.000
    H45     H    0.61610   0.56880   0.56430   1.000
    H46     H    0.46600   0.37120   0.55080   1.000
    C32     C    0.53310   0.41980   0.54030   1.000
    H47     H    0.50230   0.37110   0.56170   1.000
    H48     H    0.59470   0.41440   0.55230   1.000
    C33     C    0.33240   0.28840   0.75120   1.000
    C34     C    0.35050   0.21960   0.69530   1.000
    H49     H    0.40890   0.19590   0.70160   1.000
    H50     H    0.34760   0.24640   0.64930   1.000
    C35     C    0.24190   0.33070   0.73470   1.000
    H51     H    0.22460   0.36930   0.77270   1.000
    H52     H    0.24550   0.36500   0.69210   1.000
    C36     C    0.32670   0.24730   0.82310   1.000
    H53     H    0.31640   0.29210   0.85820   1.000
    H54     H    0.38120   0.21760   0.83420   1.000
    C37     C    0.20760   0.17020   0.75050   1.000
    C38     C    0.28180   0.14420   0.70020   1.000
    H55     H    0.25780   0.13240   0.65420   1.000
    H56     H    0.31000   0.09130   0.71700   1.000
    C39     C    0.17430   0.25690   0.72600   1.000
    H57     H    0.12190   0.27180   0.75220   1.000
    H58     H    0.15820   0.25250   0.67700   1.000
    C40     C    0.25020   0.18110   0.82240   1.000
    H59     H    0.27170   0.12460   0.83800   1.000
    H60     H    0.20600   0.20030   0.85560   1.000
    C41     C    0.70850   0.67090   0.25110   1.000
    C42     C    0.72900   0.69940   0.32580   1.000
    C43     C    0.68170   0.75440   0.21070   1.000
    C44     C    0.79200   0.63590   0.21980   1.000
    C45     C    0.82200   0.74360   0.32300   1.000
    C46     C    0.82890   0.74530   0.76790   1.000
    C47     C    0.85030   0.71480   0.19800   1.000
    C48     C    0.83170   0.78700   0.25150   1.000
    H61     H    0.72950   0.64920   0.35700   1.000
    H62     H    0.68540   0.74080   0.34240   1.000
    H63     H    0.62190   0.77040   0.22220   1.000
    H64     H    0.68530   0.74410   0.16060   1.000
    H65     H    0.77880   0.60000   0.17920   1.000
    H66     H    0.82260   0.59990   0.25380   1.000
    H67     H    0.82740   0.78700   0.35990   1.000
    H68     H    0.86740   0.69980   0.32950   1.000
    H69     H    0.86940   0.75330   0.80650   1.000
    H70     H    0.86100   0.72180   0.72830   1.000
    H71     H    0.91180   0.69860   0.19900   1.000
    H72     H    0.83550   0.73430   0.15110   1.000
    O9      O    0.89210   0.07580   0.30757   1.000
    O10     O    0.89360   0.07790   0.19030   1.000
    O11     O    0.57610   0.39140   0.19135   1.000
    O12     O    0.57720   0.39370   0.30711   1.000
    C49     C    0.86400   0.10090   0.24930   1.000
    C50     C    0.60200   0.36370   0.25070   1.000
    C51     C    0.08220   0.96780   0.46160   1.000
    H73     H    0.13050   0.00000   0.44100   1.000
    H74     H    0.08920   0.90650   0.44940   1.000
    C52     C    0.92910   0.93920   0.45940   1.000
    H75     H    0.93430   0.88240   0.43690   1.000
    H76     H    0.12820   0.03690   0.44830   1.000
    C53     C    0.97770   0.08510   0.45930   1.000
    H77     H    0.07680   0.89540   0.43830   1.000
    H78     H    0.97690   0.87330   0.44680   1.000
    C54     C    0.02290   0.08610   0.04110   1.000
    H79     H    0.92260   0.89410   0.06200   1.000
    H80     H    0.02260   0.87210   0.05290   1.000
    C55     C    0.07190   0.94040   0.04110   1.000
    H81     H    0.06880   0.88390   0.06430   1.000
    H82     H    0.87120   0.03400   0.05080   1.000
    C56     C    0.91980   0.96690   0.04030   1.000
    H83     H    0.87110   0.99770   0.06170   1.000
    H84     H    0.91440   0.90530   0.05230   1.000
    C57     C    0.78840   0.16760   0.25120   1.000
    C58     C    0.71960   0.14950   0.19530   1.000
    H85     H    0.69590   0.09110   0.20160   1.000
    H86     H    0.74640   0.15240   0.14930   1.000
    C59     C    0.83070   0.25810   0.23470   1.000
    H87     H    0.86930   0.27540   0.27270   1.000
    H88     H    0.86500   0.25450   0.19210   1.000
    C60     C    0.74730   0.17330   0.32310   1.000
    H89     H    0.79210   0.18360   0.35820   1.000
    H90     H    0.71760   0.11880   0.33420   1.000
    C61     C    0.67020   0.29240   0.25050   1.000
    C62     C    0.64420   0.21820   0.20020   1.000
    H91     H    0.63240   0.24220   0.15420   1.000
    H92     H    0.59130   0.19000   0.21700   1.000
    C63     C    0.75690   0.32570   0.22600   1.000
    H93     H    0.77180   0.37810   0.25220   1.000
    H94     H    0.75250   0.34180   0.17700   1.000
    C64     C    0.68110   0.24980   0.32240   1.000
    H95     H    0.62460   0.22830   0.33800   1.000
    H96     H    0.70030   0.29400   0.35560   1.000
    C65     C    0.17090   0.79150   0.75110   1.000
    C66     C    0.19940   0.77100   0.82580   1.000
    C67     C    0.25440   0.81830   0.71070   1.000
    C68     C    0.13590   0.70800   0.71980   1.000
    C69     C    0.24360   0.67800   0.82300   1.000
    C70     C    0.24530   0.67110   0.26790   1.000
    C71     C    0.21480   0.64970   0.69800   1.000
    C72     C    0.28700   0.66830   0.75150   1.000
    H97     H    0.14920   0.77050   0.85700   1.000
    H98     H    0.24080   0.81460   0.84240   1.000
    H99     H    0.27040   0.87810   0.72220   1.000
    H100    H    0.24410   0.81470   0.66060   1.000
    H101    H    0.10000   0.72120   0.67920   1.000
    H102    H    0.09990   0.67740   0.75380   1.000
    H103    H    0.28700   0.67260   0.85990   1.000
    H104    H    0.19980   0.63260   0.82950   1.000
    H105    H    0.25330   0.63060   0.30650   1.000
    H106    H    0.22180   0.63900   0.22830   1.000
    H107    H    0.19860   0.58820   0.69900   1.000
    H108    H    0.23430   0.66450   0.65110   1.000
    O13     O    0.10790   0.92420   0.30757   1.000
    O14     O    0.10640   0.92210   0.19030   1.000
    O15     O    0.42390   0.60860   0.19135   1.000
    O16     O    0.42280   0.60630   0.30711   1.000
    C73     C    0.13600   0.89910   0.24930   1.000
    C74     C    0.39800   0.63630   0.25070   1.000
    C75     C    0.91780   0.03220   0.46160   1.000
    H109    H    0.86950   0.00000   0.44100   1.000
    H110    H    0.91080   0.09350   0.44940   1.000
    C76     C    0.07090   0.06080   0.45940   1.000
    H111    H    0.06570   0.11760   0.43690   1.000
    H112    H    0.87180   0.96310   0.44830   1.000
    C77     C    0.02230   0.91490   0.45930   1.000
    H113    H    0.92320   0.10460   0.43830   1.000
    H114    H    0.02310   0.12670   0.44680   1.000
    C78     C    0.97710   0.91390   0.04110   1.000
    H115    H    0.07740   0.10590   0.06200   1.000
    H116    H    0.97740   0.12790   0.05290   1.000
    C79     C    0.92810   0.05960   0.04110   1.000
    H117    H    0.93120   0.11610   0.06430   1.000
    H118    H    0.12880   0.96600   0.05080   1.000
    C80     C    0.08020   0.03310   0.04030   1.000
    H119    H    0.12890   0.00230   0.06170   1.000
    H120    H    0.08560   0.09470   0.05230   1.000
    C81     C    0.21160   0.83240   0.25120   1.000
    C82     C    0.28040   0.85050   0.19530   1.000
    H121    H    0.30410   0.90890   0.20160   1.000
    H122    H    0.25360   0.84760   0.14930   1.000
    C83     C    0.16930   0.74190   0.23470   1.000
    H123    H    0.13070   0.72460   0.27270   1.000
    H124    H    0.13500   0.74550   0.19210   1.000
    C84     C    0.25270   0.82670   0.32310   1.000
    H125    H    0.20790   0.81640   0.35820   1.000
    H126    H    0.28240   0.88120   0.33420   1.000
    C85     C    0.32980   0.70760   0.25050   1.000
    C86     C    0.35580   0.78180   0.20020   1.000
    H127    H    0.36760   0.75780   0.15420   1.000
    H128    H    0.40870   0.81000   0.21700   1.000
    C87     C    0.24310   0.67430   0.22600   1.000
    H129    H    0.22820   0.62190   0.25220   1.000
    H130    H    0.24750   0.65820   0.17700   1.000
    C88     C    0.31890   0.75020   0.32240   1.000
    H131    H    0.37540   0.77170   0.33800   1.000
    H132    H    0.29970   0.70600   0.35560   1.000
    C89     C    0.82910   0.20850   0.75110   1.000
    C90     C    0.80060   0.22900   0.82580   1.000
    C91     C    0.74560   0.18170   0.71070   1.000
    C92     C    0.86410   0.29200   0.71980   1.000
    C93     C    0.75640   0.32200   0.82300   1.000
    C94     C    0.75470   0.32890   0.26790   1.000
    C95     C    0.78520   0.35030   0.69800   1.000
    C96     C    0.71300   0.33170   0.75150   1.000
    H133    H    0.85080   0.22950   0.85700   1.000
    H134    H    0.75920   0.18540   0.84240   1.000
    H135    H    0.72960   0.12190   0.72220   1.000
    H136    H    0.75590   0.18530   0.66060   1.000
    H137    H    0.90000   0.27880   0.67920   1.000
    H138    H    0.90010   0.32260   0.75380   1.000
    H139    H    0.71300   0.32740   0.85990   1.000
    H140    H    0.80020   0.36740   0.82950   1.000
    H141    H    0.74670   0.36940   0.30650   1.000
    H142    H    0.77820   0.36100   0.22830   1.000
    H143    H    0.80140   0.41180   0.69900   1.000
    H144    H    0.76570   0.33550   0.65110   1.000
    O17     O    0.92420   0.10790   0.69243   1.000
    O18     O    0.92210   0.10640   0.80970   1.000
    O19     O    0.60860   0.42390   0.80865   1.000
    O20     O    0.60630   0.42280   0.69289   1.000
    C97     C    0.89910   0.13600   0.75070   1.000
    C98     C    0.63630   0.39800   0.74930   1.000
    C99     C    0.03220   0.91780   0.53840   1.000
    H145    H    0.00000   0.86950   0.55900   1.000
    H146    H    0.09350   0.91080   0.55060   1.000
    C100    C    0.06080   0.07090   0.54060   1.000
    H147    H    0.11760   0.06570   0.56310   1.000
    H148    H    0.96310   0.87180   0.55170   1.000
    C101    C    0.91490   0.02230   0.54070   1.000
    H149    H    0.10460   0.92320   0.56170   1.000
    H150    H    0.12670   0.02310   0.55320   1.000
    C102    C    0.91390   0.97710   0.95890   1.000
    H151    H    0.10590   0.07740   0.93800   1.000
    H152    H    0.12790   0.97740   0.94710   1.000
    C103    C    0.05960   0.92810   0.95890   1.000
    H153    H    0.11610   0.93120   0.93570   1.000
    H154    H    0.96600   0.12880   0.94920   1.000
    C104    C    0.03310   0.08020   0.95970   1.000
    H155    H    0.00230   0.12890   0.93830   1.000
    H156    H    0.09470   0.08560   0.94770   1.000
    C105    C    0.83240   0.21160   0.74880   1.000
    C106    C    0.85050   0.28040   0.80470   1.000
    H157    H    0.90890   0.30410   0.79840   1.000
    H158    H    0.84760   0.25360   0.85070   1.000
    C107    C    0.74190   0.16930   0.76530   1.000
    H159    H    0.72460   0.13070   0.72730   1.000
    H160    H    0.74550   0.13500   0.80790   1.000
    C108    C    0.82670   0.25270   0.67690   1.000
    H161    H    0.81640   0.20790   0.64180   1.000
    H162    H    0.88120   0.28240   0.66580   1.000
    C109    C    0.70760   0.32980   0.74950   1.000
    C110    C    0.78180   0.35580   0.79980   1.000
    H163    H    0.75780   0.36760   0.84580   1.000
    H164    H    0.81000   0.40870   0.78300   1.000
    C111    C    0.67430   0.24310   0.77400   1.000
    H165    H    0.62190   0.22820   0.74780   1.000
    H166    H    0.65820   0.24750   0.82300   1.000
    C112    C    0.75020   0.31890   0.67760   1.000
    H167    H    0.77170   0.37540   0.66200   1.000
    H168    H    0.70600   0.29970   0.64440   1.000
    C113    C    0.20850   0.82910   0.24890   1.000
    C114    C    0.22900   0.80060   0.17420   1.000
    C115    C    0.18170   0.74560   0.28930   1.000
    C116    C    0.29200   0.86410   0.28020   1.000
    C117    C    0.32200   0.75640   0.17700   1.000
    C118    C    0.32890   0.75470   0.73210   1.000
    C119    C    0.35030   0.78520   0.30200   1.000
    C120    C    0.33170   0.71300   0.24850   1.000
    H169    H    0.22950   0.85080   0.14300   1.000
    H170    H    0.18540   0.75920   0.15760   1.000
    H171    H    0.12190   0.72960   0.27780   1.000
    H172    H    0.18530   0.75590   0.33940   1.000
    H173    H    0.27880   0.90000   0.32080   1.000
    H174    H    0.32260   0.90010   0.24620   1.000
    H175    H    0.32740   0.71300   0.14010   1.000
    H176    H    0.36740   0.80020   0.17050   1.000
    H177    H    0.36940   0.74670   0.69350   1.000
    H178    H    0.36100   0.77820   0.77170   1.000
    H179    H    0.41180   0.80140   0.30100   1.000
    H180    H    0.33550   0.76570   0.34890   1.000
    O21     O    0.07580   0.89210   0.69243   1.000
    O22     O    0.07790   0.89360   0.80970   1.000
    O23     O    0.39140   0.57610   0.80865   1.000
    O24     O    0.39370   0.57720   0.69289   1.000
    C121    C    0.10090   0.86400   0.75070   1.000
    C122    C    0.36370   0.60200   0.74930   1.000
    C123    C    0.96780   0.08220   0.53840   1.000
    H181    H    0.00000   0.13050   0.55900   1.000
    H182    H    0.90650   0.08920   0.55060   1.000
    C124    C    0.93920   0.92910   0.54060   1.000
    H183    H    0.88240   0.93430   0.56310   1.000
    H184    H    0.03690   0.12820   0.55170   1.000
    C125    C    0.08510   0.97770   0.54070   1.000
    H185    H    0.89540   0.07680   0.56170   1.000
    H186    H    0.87330   0.97690   0.55320   1.000
    C126    C    0.08610   0.02290   0.95890   1.000
    H187    H    0.89410   0.92260   0.93800   1.000
    H188    H    0.87210   0.02260   0.94710   1.000
    C127    C    0.94040   0.07190   0.95890   1.000
    H189    H    0.88390   0.06880   0.93570   1.000
    H190    H    0.03400   0.87120   0.94920   1.000
    C128    C    0.96690   0.91980   0.95970   1.000
    H191    H    0.99770   0.87110   0.93830   1.000
    H192    H    0.90530   0.91440   0.94770   1.000
    C129    C    0.16760   0.78840   0.74880   1.000
    C130    C    0.14950   0.71960   0.80470   1.000
    H193    H    0.09110   0.69590   0.79840   1.000
    H194    H    0.15240   0.74640   0.85070   1.000
    C131    C    0.25810   0.83070   0.76530   1.000
    H195    H    0.27540   0.86930   0.72730   1.000
    H196    H    0.25450   0.86500   0.80790   1.000
    C132    C    0.17330   0.74730   0.67690   1.000
    H197    H    0.18360   0.79210   0.64180   1.000
    H198    H    0.11880   0.71760   0.66580   1.000
    C133    C    0.29240   0.67020   0.74950   1.000
    C134    C    0.21820   0.64420   0.79980   1.000
    H199    H    0.24220   0.63240   0.84580   1.000
    H200    H    0.19000   0.59130   0.78300   1.000
    C135    C    0.32570   0.75690   0.77400   1.000
    H201    H    0.37810   0.77180   0.74780   1.000
    H202    H    0.34180   0.75250   0.82300   1.000
    C136    C    0.24980   0.68110   0.67760   1.000
    H203    H    0.22830   0.62460   0.66200   1.000
    H204    H    0.29400   0.70030   0.64440   1.000
    C137    C    0.79150   0.17090   0.24890   1.000
    C138    C    0.77100   0.19940   0.17420   1.000
    C139    C    0.81830   0.25440   0.28930   1.000
    C140    C    0.70800   0.13590   0.28020   1.000
    C141    C    0.67800   0.24360   0.17700   1.000
    C142    C    0.67110   0.24530   0.73210   1.000
    C143    C    0.64970   0.21480   0.30200   1.000
    C144    C    0.66830   0.28700   0.24850   1.000
    H205    H    0.77050   0.14920   0.14300   1.000
    H206    H    0.81460   0.24080   0.15760   1.000
    H207    H    0.87810   0.27040   0.27780   1.000
    H208    H    0.81470   0.24410   0.33940   1.000
    H209    H    0.72120   0.10000   0.32080   1.000
    H210    H    0.67740   0.09990   0.24620   1.000
    H211    H    0.67260   0.28700   0.14010   1.000
    H212    H    0.63260   0.19980   0.17050   1.000
    H213    H    0.63060   0.25330   0.69350   1.000
    H214    H    0.63900   0.22180   0.77170   1.000
    H215    H    0.58820   0.19860   0.30100   1.000
    H216    H    0.66450   0.23430   0.34890   1.000
    O25     O    0.60790   0.57580   0.19243   1.000
    O26     O    0.60640   0.57790   0.30970   1.000
    O27     O    0.92390   0.89140   0.30865   1.000
    O28     O    0.92280   0.89370   0.19289   1.000
    C145    C    0.63600   0.60090   0.25070   1.000
    C146    C    0.89800   0.86370   0.24930   1.000
    C147    C    0.41780   0.46780   0.03840   1.000
    H217    H    0.36950   0.50000   0.05900   1.000
    H218    H    0.41080   0.40650   0.05060   1.000
    C148    C    0.57090   0.43920   0.04060   1.000
    H219    H    0.56570   0.38240   0.06310   1.000
    H220    H    0.37180   0.53690   0.05170   1.000
    C149    C    0.52230   0.58510   0.04070   1.000
    H221    H    0.42320   0.39540   0.06170   1.000
    H222    H    0.52310   0.37330   0.05320   1.000
    C150    C    0.47710   0.58610   0.45890   1.000
    H223    H    0.57740   0.39410   0.43800   1.000
    H224    H    0.47740   0.37210   0.44710   1.000
    C151    C    0.42810   0.44040   0.45890   1.000
    H225    H    0.43120   0.38390   0.43570   1.000
    H226    H    0.62880   0.53400   0.44920   1.000
    C152    C    0.58020   0.46690   0.45970   1.000
    H227    H    0.62890   0.49770   0.43830   1.000
    H228    H    0.58560   0.40530   0.44770   1.000
    C153    C    0.71160   0.66760   0.24880   1.000
    C154    C    0.78040   0.64950   0.30470   1.000
    H229    H    0.80410   0.59110   0.29840   1.000
    H230    H    0.75360   0.65240   0.35070   1.000
    C155    C    0.66930   0.75810   0.26530   1.000
    H231    H    0.63070   0.77540   0.22730   1.000
    H232    H    0.63500   0.75450   0.30790   1.000
    C156    C    0.75270   0.67330   0.17690   1.000
    H233    H    0.70790   0.68360   0.14180   1.000
    H234    H    0.78240   0.61880   0.16580   1.000
    C157    C    0.82980   0.79240   0.24950   1.000
    C158    C    0.85580   0.71820   0.29980   1.000
    H235    H    0.86760   0.74220   0.34580   1.000
    H236    H    0.90870   0.69000   0.28300   1.000
    C159    C    0.74310   0.82570   0.27400   1.000
    H237    H    0.72820   0.87810   0.24780   1.000
    H238    H    0.74750   0.84180   0.32300   1.000
    C160    C    0.81890   0.74980   0.17760   1.000
    H239    H    0.87540   0.72830   0.16200   1.000
    H240    H    0.79970   0.79400   0.14440   1.000
    C161    C    0.32910   0.29150   0.74890   1.000
    C162    C    0.30060   0.27100   0.67420   1.000
    C163    C    0.24560   0.31830   0.78930   1.000
    C164    C    0.36410   0.20800   0.78020   1.000
    C165    C    0.25640   0.17800   0.67700   1.000
    C166    C    0.25470   0.17110   0.23210   1.000
    C167    C    0.28520   0.14970   0.80200   1.000
    C168    C    0.21300   0.16830   0.74850   1.000
    H241    H    0.35080   0.27050   0.64300   1.000
    H242    H    0.25920   0.31460   0.65760   1.000
    H243    H    0.22960   0.37810   0.77780   1.000
    H244    H    0.25590   0.31470   0.83940   1.000
    H245    H    0.40000   0.22120   0.82080   1.000
    H246    H    0.40010   0.17740   0.74620   1.000
    H247    H    0.21300   0.17260   0.64010   1.000
    H248    H    0.30020   0.13260   0.67050   1.000
    H249    H    0.24670   0.13060   0.19350   1.000
    H250    H    0.27820   0.13900   0.27170   1.000
    H251    H    0.30140   0.08820   0.80100   1.000
    H252    H    0.26570   0.16450   0.84890   1.000
    O29     O    0.39210   0.42420   0.19243   1.000
    O30     O    0.39360   0.42210   0.30970   1.000
    O31     O    0.07610   0.10860   0.30865   1.000
    O32     O    0.07720   0.10630   0.19289   1.000
    C169    C    0.36400   0.39910   0.25070   1.000
    C170    C    0.10200   0.13630   0.24930   1.000
    C171    C    0.58220   0.53220   0.03840   1.000
    H253    H    0.63050   0.50000   0.05900   1.000
    H254    H    0.58920   0.59350   0.05060   1.000
    C172    C    0.42910   0.56080   0.04060   1.000
    H255    H    0.43430   0.61760   0.06310   1.000
    H256    H    0.62820   0.46310   0.05170   1.000
    C173    C    0.47770   0.41490   0.04070   1.000
    H257    H    0.57680   0.60460   0.06170   1.000
    H258    H    0.47690   0.62670   0.05320   1.000
    C174    C    0.52290   0.41390   0.45890   1.000
    H259    H    0.42260   0.60590   0.43800   1.000
    H260    H    0.52260   0.62790   0.44710   1.000
    C175    C    0.57190   0.55960   0.45890   1.000
    H261    H    0.56880   0.61610   0.43570   1.000
    H262    H    0.37120   0.46600   0.44920   1.000
    C176    C    0.41980   0.53310   0.45970   1.000
    H263    H    0.37110   0.50230   0.43830   1.000
    H264    H    0.41440   0.59470   0.44770   1.000
    C177    C    0.28840   0.33240   0.24880   1.000
    C178    C    0.21960   0.35050   0.30470   1.000
    H265    H    0.19590   0.40890   0.29840   1.000
    H266    H    0.24640   0.34760   0.35070   1.000
    C179    C    0.33070   0.24190   0.26530   1.000
    H267    H    0.36930   0.22460   0.22730   1.000
    H268    H    0.36500   0.24550   0.30790   1.000
    C180    C    0.24730   0.32670   0.17690   1.000
    H269    H    0.29210   0.31640   0.14180   1.000
    H270    H    0.21760   0.38120   0.16580   1.000
    C181    C    0.17020   0.20760   0.24950   1.000
    C182    C    0.14420   0.28180   0.29980   1.000
    H271    H    0.13240   0.25780   0.34580   1.000
    H272    H    0.09130   0.31000   0.28300   1.000
    C183    C    0.25690   0.17430   0.27400   1.000
    H273    H    0.27180   0.12190   0.24780   1.000
    H274    H    0.25250   0.15820   0.32300   1.000
    C184    C    0.18110   0.25020   0.17760   1.000
    H275    H    0.12460   0.27170   0.16200   1.000
    H276    H    0.20030   0.20600   0.14440   1.000
    C185    C    0.67090   0.70850   0.74890   1.000
    C186    C    0.69940   0.72900   0.67420   1.000
    C187    C    0.75440   0.68170   0.78930   1.000
    C188    C    0.63590   0.79200   0.78020   1.000
    C189    C    0.74360   0.82200   0.67700   1.000
    C190    C    0.74530   0.82890   0.23210   1.000
    C191    C    0.71480   0.85030   0.80200   1.000
    C192    C    0.78700   0.83170   0.74850   1.000
    H277    H    0.64920   0.72950   0.64300   1.000
    H278    H    0.74080   0.68540   0.65760   1.000
    H279    H    0.77040   0.62190   0.77780   1.000
    H280    H    0.74410   0.68530   0.83940   1.000
    H281    H    0.60000   0.77880   0.82080   1.000
    H282    H    0.59990   0.82260   0.74620   1.000
    H283    H    0.78700   0.82740   0.64010   1.000
    H284    H    0.69980   0.86740   0.67050   1.000
    H285    H    0.75330   0.86940   0.19350   1.000
    H286    H    0.72180   0.86100   0.27170   1.000
    H287    H    0.69860   0.91180   0.80100   1.000
    H288    H    0.73430   0.83550   0.84890   1.000
    Co1     Co   0.50000   0.50000   0.82118   1.000
    Co2     Co   0.50000   0.50000   0.67873   1.000
    N1      N    0.50000   0.50000   0.93270   1.000
    N2      N    0.50000   0.50000   0.56850   1.000
    Co3     Co   0.00000   0.00000   0.32118   1.000
    Co4     Co   0.00000   0.00000   0.17873   1.000
    N3      N    0.00000   0.00000   0.43270   1.000
    N4      N    0.00000   0.00000   0.06850   1.000
    Co5     Co   0.00000   0.00000   0.67882   1.000
    Co6     Co   0.00000   0.00000   0.82127   1.000
    N5      N    0.00000   0.00000   0.56730   1.000
    N6      N    0.00000   0.00000   0.93150   1.000
    Co7     Co   0.50000   0.50000   0.17882   1.000
    Co8     Co   0.50000   0.50000   0.32127   1.000
    N7      N    0.50000   0.50000   0.06730   1.000
    N8      N    0.50000   0.50000   0.43150   1.000
