# CIF file generated by openbabel 2.4.1, see http://openbabel.sf.net
data_I
_chemical_name_common 'image0'
_cell_length_a 16.834
_cell_length_b 16.834
_cell_length_c 25.705
_cell_angle_alpha 90
_cell_angle_beta 90
_cell_angle_gamma 120
_space_group_name_H-M_alt 'P 1'
_space_group_name_Hall 'P 1'
loop_
    _symmetry_equiv_pos_as_xyz
    x,y,z
loop_
    _atom_site_label
    _atom_site_type_symbol
    _atom_site_fract_x
    _atom_site_fract_y
    _atom_site_fract_z
    _atom_site_occupancy
    O1      O    0.82382   0.34506   0.30697   1.000
    C1      C    0.88660   0.37390   0.40990   1.000
    H1      H    0.85820   0.31370   0.39810   1.000
    C2      C    0.93360   0.39900   0.45700   1.000
    H2      H    0.92930   0.35460   0.48020   1.000
    C3      C    0.94080   0.40270   0.39130   1.000
    H3      H    0.94210   0.35740   0.37130   1.000
    C4      C    0.98080   0.42260   0.44040   1.000
    H4      H    0.02150   0.40280   0.44940   1.000
    C5      C    0.95980   0.47300   0.47700   1.000
    O2      O    0.65494   0.47876   0.30697   1.000
    C6      C    0.62610   0.51270   0.40990   1.000
    H5      H    0.68630   0.54450   0.39810   1.000
    C7      C    0.60100   0.53460   0.45700   1.000
    H6      H    0.64540   0.57470   0.48020   1.000
    C8      C    0.59730   0.53810   0.39130   1.000
    H7      H    0.64260   0.58470   0.37130   1.000
    C9      C    0.57740   0.55820   0.44040   1.000
    H8      H    0.59720   0.61870   0.44940   1.000
    C10     C    0.52700   0.48680   0.47700   1.000
    O3      O    0.52124   0.17618   0.30697   1.000
    C11     C    0.48730   0.11340   0.40990   1.000
    H9      H    0.45550   0.14180   0.39810   1.000
    C12     C    0.46540   0.06640   0.45700   1.000
    H10     H    0.42530   0.07070   0.48020   1.000
    C13     C    0.46190   0.05920   0.39130   1.000
    H11     H    0.41530   0.05790   0.37130   1.000
    C14     C    0.44180   0.01920   0.44040   1.000
    H12     H    0.38130   0.97850   0.44940   1.000
    C15     C    0.51320   0.04020   0.47700   1.000
    O4      O    0.17618   0.65494   0.80697   1.000
    C16     C    0.11340   0.62610   0.90990   1.000
    H13     H    0.14180   0.68630   0.89810   1.000
    C17     C    0.06640   0.60100   0.95700   1.000
    H14     H    0.07070   0.64540   0.98020   1.000
    C18     C    0.05920   0.59730   0.89130   1.000
    H15     H    0.05790   0.64260   0.87130   1.000
    C19     C    0.01920   0.57740   0.94040   1.000
    H16     H    0.97850   0.59720   0.94940   1.000
    C20     C    0.04020   0.52700   0.97700   1.000
    O5      O    0.34506   0.52124   0.80697   1.000
    C21     C    0.37390   0.48730   0.90990   1.000
    H17     H    0.31370   0.45550   0.89810   1.000
    C22     C    0.39900   0.46540   0.95700   1.000
    H18     H    0.35460   0.42530   0.98020   1.000
    C23     C    0.40270   0.46190   0.89130   1.000
    H19     H    0.35740   0.41530   0.87130   1.000
    C24     C    0.42260   0.44180   0.94040   1.000
    H20     H    0.40280   0.38130   0.94940   1.000
    C25     C    0.47300   0.51320   0.97700   1.000
    O6      O    0.47876   0.82382   0.80697   1.000
    C26     C    0.51270   0.88660   0.90990   1.000
    H21     H    0.54450   0.85820   0.89810   1.000
    C27     C    0.53460   0.93360   0.95700   1.000
    H22     H    0.57470   0.92930   0.98020   1.000
    C28     C    0.53810   0.94080   0.89130   1.000
    H23     H    0.58470   0.94210   0.87130   1.000
    C29     C    0.55820   0.98080   0.94040   1.000
    H24     H    0.61870   0.02150   0.94940   1.000
    C30     C    0.48680   0.95980   0.97700   1.000
    O7      O    0.34506   0.82382   0.69303   1.000
    C31     C    0.37390   0.88660   0.59010   1.000
    H25     H    0.31370   0.85820   0.60190   1.000
    C32     C    0.39900   0.93360   0.54300   1.000
    H26     H    0.35460   0.92930   0.51980   1.000
    C33     C    0.40270   0.94080   0.60870   1.000
    H27     H    0.35740   0.94210   0.62870   1.000
    C34     C    0.42260   0.98080   0.55960   1.000
    H28     H    0.40280   0.02150   0.55060   1.000
    C35     C    0.47300   0.95980   0.52300   1.000
    O8      O    0.47876   0.65494   0.69303   1.000
    C36     C    0.51270   0.62610   0.59010   1.000
    H29     H    0.54450   0.68630   0.60190   1.000
    C37     C    0.53460   0.60100   0.54300   1.000
    H30     H    0.57470   0.64540   0.51980   1.000
    C38     C    0.53810   0.59730   0.60870   1.000
    H31     H    0.58470   0.64260   0.62870   1.000
    C39     C    0.55820   0.57740   0.55960   1.000
    H32     H    0.61870   0.59720   0.55060   1.000
    C40     C    0.48680   0.52700   0.52300   1.000
    O9      O    0.17618   0.52124   0.69303   1.000
    C41     C    0.11340   0.48730   0.59010   1.000
    H33     H    0.14180   0.45550   0.60190   1.000
    C42     C    0.06640   0.46540   0.54300   1.000
    H34     H    0.07070   0.42530   0.51980   1.000
    C43     C    0.05920   0.46190   0.60870   1.000
    H35     H    0.05790   0.41530   0.62870   1.000
    C44     C    0.01920   0.44180   0.55960   1.000
    H36     H    0.97850   0.38130   0.55060   1.000
    C45     C    0.04020   0.51320   0.52300   1.000
    O10     O    0.65494   0.17618   0.19303   1.000
    C46     C    0.62610   0.11340   0.09010   1.000
    H37     H    0.68630   0.14180   0.10190   1.000
    C47     C    0.60100   0.06640   0.04300   1.000
    H38     H    0.64540   0.07070   0.01980   1.000
    C48     C    0.59730   0.05920   0.10870   1.000
    H39     H    0.64260   0.05790   0.12870   1.000
    C49     C    0.57740   0.01920   0.05960   1.000
    H40     H    0.59720   0.97850   0.05060   1.000
    C50     C    0.52700   0.04020   0.02300   1.000
    O11     O    0.52124   0.34506   0.19303   1.000
    C51     C    0.48730   0.37390   0.09010   1.000
    H41     H    0.45550   0.31370   0.10190   1.000
    C52     C    0.46540   0.39900   0.04300   1.000
    H42     H    0.42530   0.35460   0.01980   1.000
    C53     C    0.46190   0.40270   0.10870   1.000
    H43     H    0.41530   0.35740   0.12870   1.000
    C54     C    0.44180   0.42260   0.05960   1.000
    H44     H    0.38130   0.40280   0.05060   1.000
    C55     C    0.51320   0.47300   0.02300   1.000
    O12     O    0.82382   0.47876   0.19303   1.000
    C56     C    0.88660   0.51270   0.09010   1.000
    H45     H    0.85820   0.54450   0.10190   1.000
    C57     C    0.93360   0.53460   0.04300   1.000
    H46     H    0.92930   0.57470   0.01980   1.000
    C58     C    0.94080   0.53810   0.10870   1.000
    H47     H    0.94210   0.58470   0.12870   1.000
    C59     C    0.98080   0.55820   0.05960   1.000
    H48     H    0.02150   0.61870   0.05060   1.000
    C60     C    0.95980   0.48680   0.02300   1.000
    O13     O    0.17618   0.65494   0.69303   1.000
    C61     C    0.11340   0.62610   0.59010   1.000
    H49     H    0.14180   0.68630   0.60190   1.000
    C62     C    0.06640   0.60100   0.54300   1.000
    H50     H    0.07070   0.64540   0.51980   1.000
    C63     C    0.05920   0.59730   0.60870   1.000
    H51     H    0.05790   0.64260   0.62870   1.000
    C64     C    0.01920   0.57740   0.55960   1.000
    H52     H    0.97850   0.59720   0.55060   1.000
    C65     C    0.04020   0.52700   0.52300   1.000
    O14     O    0.34506   0.52124   0.69303   1.000
    C66     C    0.37390   0.48730   0.59010   1.000
    H53     H    0.31370   0.45550   0.60190   1.000
    C67     C    0.39900   0.46540   0.54300   1.000
    H54     H    0.35460   0.42530   0.51980   1.000
    C68     C    0.40270   0.46190   0.60870   1.000
    H55     H    0.35740   0.41530   0.62870   1.000
    C69     C    0.42260   0.44180   0.55960   1.000
    H56     H    0.40280   0.38130   0.55060   1.000
    C70     C    0.47300   0.51320   0.52300   1.000
    O15     O    0.47876   0.82382   0.69303   1.000
    C71     C    0.51270   0.88660   0.59010   1.000
    H57     H    0.54450   0.85820   0.60190   1.000
    C72     C    0.53460   0.93360   0.54300   1.000
    H58     H    0.57470   0.92930   0.51980   1.000
    C73     C    0.53810   0.94080   0.60870   1.000
    H59     H    0.58470   0.94210   0.62870   1.000
    C74     C    0.55820   0.98080   0.55960   1.000
    H60     H    0.61870   0.02150   0.55060   1.000
    C75     C    0.48680   0.95980   0.52300   1.000
    O16     O    0.82382   0.34506   0.19303   1.000
    C76     C    0.88660   0.37390   0.09010   1.000
    H61     H    0.85820   0.31370   0.10190   1.000
    C77     C    0.93360   0.39900   0.04300   1.000
    H62     H    0.92930   0.35460   0.01980   1.000
    C78     C    0.94080   0.40270   0.10870   1.000
    H63     H    0.94210   0.35740   0.12870   1.000
    C79     C    0.98080   0.42260   0.05960   1.000
    H64     H    0.02150   0.40280   0.05060   1.000
    C80     C    0.95980   0.47300   0.02300   1.000
    O17     O    0.65494   0.47876   0.19303   1.000
    C81     C    0.62610   0.51270   0.09010   1.000
    H65     H    0.68630   0.54450   0.10190   1.000
    C82     C    0.60100   0.53460   0.04300   1.000
    H66     H    0.64540   0.57470   0.01980   1.000
    C83     C    0.59730   0.53810   0.10870   1.000
    H67     H    0.64260   0.58470   0.12870   1.000
    C84     C    0.57740   0.55820   0.05960   1.000
    H68     H    0.59720   0.61870   0.05060   1.000
    C85     C    0.52700   0.48680   0.02300   1.000
    O18     O    0.52124   0.17618   0.19303   1.000
    C86     C    0.48730   0.11340   0.09010   1.000
    H69     H    0.45550   0.14180   0.10190   1.000
    C87     C    0.46540   0.06640   0.04300   1.000
    H70     H    0.42530   0.07070   0.01980   1.000
    C88     C    0.46190   0.05920   0.10870   1.000
    H71     H    0.41530   0.05790   0.12870   1.000
    C89     C    0.44180   0.01920   0.05960   1.000
    H72     H    0.38130   0.97850   0.05060   1.000
    C90     C    0.51320   0.04020   0.02300   1.000
    O19     O    0.65494   0.17618   0.30697   1.000
    C91     C    0.62610   0.11340   0.40990   1.000
    H73     H    0.68630   0.14180   0.39810   1.000
    C92     C    0.60100   0.06640   0.45700   1.000
    H74     H    0.64540   0.07070   0.48020   1.000
    C93     C    0.59730   0.05920   0.39130   1.000
    H75     H    0.64260   0.05790   0.37130   1.000
    C94     C    0.57740   0.01920   0.44040   1.000
    H76     H    0.59720   0.97850   0.44940   1.000
    C95     C    0.52700   0.04020   0.47700   1.000
    O20     O    0.52124   0.34506   0.30697   1.000
    C96     C    0.48730   0.37390   0.40990   1.000
    H77     H    0.45550   0.31370   0.39810   1.000
    C97     C    0.46540   0.39900   0.45700   1.000
    H78     H    0.42530   0.35460   0.48020   1.000
    C98     C    0.46190   0.40270   0.39130   1.000
    H79     H    0.41530   0.35740   0.37130   1.000
    C99     C    0.44180   0.42260   0.44040   1.000
    H80     H    0.38130   0.40280   0.44940   1.000
    C100    C    0.51320   0.47300   0.47700   1.000
    O21     O    0.82382   0.47876   0.30697   1.000
    C101    C    0.88660   0.51270   0.40990   1.000
    H81     H    0.85820   0.54450   0.39810   1.000
    C102    C    0.93360   0.53460   0.45700   1.000
    H82     H    0.92930   0.57470   0.48020   1.000
    C103    C    0.94080   0.53810   0.39130   1.000
    H83     H    0.94210   0.58470   0.37130   1.000
    C104    C    0.98080   0.55820   0.44040   1.000
    H84     H    0.02150   0.61870   0.44940   1.000
    C105    C    0.95980   0.48680   0.47700   1.000
    O22     O    0.34506   0.82382   0.80697   1.000
    C106    C    0.37390   0.88660   0.90990   1.000
    H85     H    0.31370   0.85820   0.89810   1.000
    C107    C    0.39900   0.93360   0.95700   1.000
    H86     H    0.35460   0.92930   0.98020   1.000
    C108    C    0.40270   0.94080   0.89130   1.000
    H87     H    0.35740   0.94210   0.87130   1.000
    C109    C    0.42260   0.98080   0.94040   1.000
    H88     H    0.40280   0.02150   0.94940   1.000
    C110    C    0.47300   0.95980   0.97700   1.000
    O23     O    0.47876   0.65494   0.80697   1.000
    C111    C    0.51270   0.62610   0.90990   1.000
    H89     H    0.54450   0.68630   0.89810   1.000
    C112    C    0.53460   0.60100   0.95700   1.000
    H90     H    0.57470   0.64540   0.98020   1.000
    C113    C    0.53810   0.59730   0.89130   1.000
    H91     H    0.58470   0.64260   0.87130   1.000
    C114    C    0.55820   0.57740   0.94040   1.000
    H92     H    0.61870   0.59720   0.94940   1.000
    C115    C    0.48680   0.52700   0.97700   1.000
    O24     O    0.17618   0.52124   0.80697   1.000
    C116    C    0.11340   0.48730   0.90990   1.000
    H93     H    0.14180   0.45550   0.89810   1.000
    C117    C    0.06640   0.46540   0.95700   1.000
    H94     H    0.07070   0.42530   0.98020   1.000
    C118    C    0.05920   0.46190   0.89130   1.000
    H95     H    0.05790   0.41530   0.87130   1.000
    C119    C    0.01920   0.44180   0.94040   1.000
    H96     H    0.97850   0.38130   0.94940   1.000
    C120    C    0.04020   0.51320   0.97700   1.000
    Co1     Co   0.73611   0.26389   0.25000   1.000
    N1      N    0.80904   0.19096   0.25000   1.000
    C121    C    0.90410   0.09590   0.25000   1.000
    C122    C    0.95520   0.04480   0.25000   1.000
    Co2     Co   0.73611   0.47222   0.25000   1.000
    N2      N    0.80904   0.61808   0.25000   1.000
    C123    C    0.90410   0.80820   0.25000   1.000
    C124    C    0.95520   0.91040   0.25000   1.000
    Co3     Co   0.52778   0.26389   0.25000   1.000
    N3      N    0.38192   0.19096   0.25000   1.000
    C125    C    0.19180   0.09590   0.25000   1.000
    C126    C    0.08960   0.04480   0.25000   1.000
    Co4     Co   0.26389   0.73611   0.75000   1.000
    N4      N    0.19096   0.80904   0.75000   1.000
    C127    C    0.09590   0.90410   0.75000   1.000
    C128    C    0.04480   0.95520   0.75000   1.000
    Co5     Co   0.26389   0.52778   0.75000   1.000
    N5      N    0.19096   0.38192   0.75000   1.000
    C129    C    0.09590   0.19180   0.75000   1.000
    C130    C    0.04480   0.08960   0.75000   1.000
    Co6     Co   0.47222   0.73611   0.75000   1.000
    N6      N    0.61808   0.80904   0.75000   1.000
    C131    C    0.80820   0.90410   0.75000   1.000
    C132    C    0.91040   0.95520   0.75000   1.000
    O25     O    0.66667   0.33333   0.25000   1.000
    O26     O    0.33333   0.66667   0.75000   1.000
    N7      N    0.04685   0.09370   0.25000   1.000
    N8      N    0.90630   0.95315   0.25000   1.000
    N9      N    0.04685   0.95315   0.25000   1.000
    N10     N    0.95315   0.90630   0.75000   1.000
    N11     N    0.09370   0.04685   0.75000   1.000
    N12     N    0.95315   0.04685   0.75000   1.000
    C133    C    0.84010   0.42005   0.32580   1.000
    C134    C    0.88380   0.44190   0.38130   1.000
    C135    C    0.98850   0.49425   0.46900   1.000
    C136    C    0.89950   0.44975   0.37200   1.000
    C137    C    0.57995   0.42005   0.32580   1.000
    C138    C    0.55810   0.44190   0.38130   1.000
    C139    C    0.50575   0.49425   0.46900   1.000
    C140    C    0.55025   0.44975   0.37200   1.000
    C141    C    0.57995   0.15990   0.32580   1.000
    C142    C    0.55810   0.11620   0.38130   1.000
    C143    C    0.50575   0.01150   0.46900   1.000
    C144    C    0.55025   0.10050   0.37200   1.000
    C145    C    0.15990   0.57995   0.82580   1.000
    C146    C    0.11620   0.55810   0.88130   1.000
    C147    C    0.01150   0.50575   0.96900   1.000
    C148    C    0.10050   0.55025   0.87200   1.000
    C149    C    0.42005   0.57995   0.82580   1.000
    C150    C    0.44190   0.55810   0.88130   1.000
    C151    C    0.49425   0.50575   0.96900   1.000
    C152    C    0.44975   0.55025   0.87200   1.000
    C153    C    0.42005   0.84010   0.82580   1.000
    C154    C    0.44190   0.88380   0.88130   1.000
    C155    C    0.49425   0.98850   0.96900   1.000
    C156    C    0.44975   0.89950   0.87200   1.000
    C157    C    0.42005   0.84010   0.67420   1.000
    C158    C    0.44190   0.88380   0.61870   1.000
    C159    C    0.49425   0.98850   0.53100   1.000
    C160    C    0.44975   0.89950   0.62800   1.000
    C161    C    0.42005   0.57995   0.67420   1.000
    C162    C    0.44190   0.55810   0.61870   1.000
    C163    C    0.49425   0.50575   0.53100   1.000
    C164    C    0.44975   0.55025   0.62800   1.000
    C165    C    0.15990   0.57995   0.67420   1.000
    C166    C    0.11620   0.55810   0.61870   1.000
    C167    C    0.01150   0.50575   0.53100   1.000
    C168    C    0.10050   0.55025   0.62800   1.000
    C169    C    0.57995   0.15990   0.17420   1.000
    C170    C    0.55810   0.11620   0.11870   1.000
    C171    C    0.50575   0.01150   0.03100   1.000
    C172    C    0.55025   0.10050   0.12800   1.000
    C173    C    0.57995   0.42005   0.17420   1.000
    C174    C    0.55810   0.44190   0.11870   1.000
    C175    C    0.50575   0.49425   0.03100   1.000
    C176    C    0.55025   0.44975   0.12800   1.000
    C177    C    0.84010   0.42005   0.17420   1.000
    C178    C    0.88380   0.44190   0.11870   1.000
    C179    C    0.98850   0.49425   0.03100   1.000
    C180    C    0.89950   0.44975   0.12800   1.000
    C181    C    0.90160   0.23590   0.25000   1.000
    H97     H    0.93330   0.29970   0.25000   1.000
    C182    C    0.95070   0.19070   0.25000   1.000
    H98     H    0.01450   0.22350   0.25000   1.000
    C183    C    0.76410   0.66570   0.25000   1.000
    H99     H    0.70030   0.63360   0.25000   1.000
    C184    C    0.80930   0.76000   0.25000   1.000
    H100    H    0.77650   0.79100   0.25000   1.000
    C185    C    0.33430   0.09840   0.25000   1.000
    H101    H    0.36640   0.06670   0.25000   1.000
    C186    C    0.24000   0.04930   0.25000   1.000
    H102    H    0.20900   0.98550   0.25000   1.000
    C187    C    0.09840   0.76410   0.75000   1.000
    H103    H    0.06670   0.70030   0.75000   1.000
    C188    C    0.04930   0.80930   0.75000   1.000
    H104    H    0.98550   0.77650   0.75000   1.000
    C189    C    0.23590   0.33430   0.75000   1.000
    H105    H    0.29970   0.36640   0.75000   1.000
    C190    C    0.19070   0.24000   0.75000   1.000
    H106    H    0.22350   0.20900   0.75000   1.000
    C191    C    0.66570   0.90160   0.75000   1.000
    H107    H    0.63360   0.93330   0.75000   1.000
    C192    C    0.76000   0.95070   0.75000   1.000
    H108    H    0.79100   0.01450   0.75000   1.000
    C193    C    0.23590   0.90160   0.75000   1.000
    H109    H    0.29970   0.93330   0.75000   1.000
    C194    C    0.19070   0.95070   0.75000   1.000
    H110    H    0.22350   0.01450   0.75000   1.000
    C195    C    0.66570   0.76410   0.75000   1.000
    H111    H    0.63360   0.70030   0.75000   1.000
    C196    C    0.76000   0.80930   0.75000   1.000
    H112    H    0.79100   0.77650   0.75000   1.000
    C197    C    0.09840   0.33430   0.75000   1.000
    H113    H    0.06670   0.36640   0.75000   1.000
    C198    C    0.04930   0.24000   0.75000   1.000
    H114    H    0.98550   0.20900   0.75000   1.000
    C199    C    0.76410   0.09840   0.25000   1.000
    H115    H    0.70030   0.06670   0.25000   1.000
    C200    C    0.80930   0.04930   0.25000   1.000
    H116    H    0.77650   0.98550   0.25000   1.000
    C201    C    0.33430   0.23590   0.25000   1.000
    H117    H    0.36640   0.29970   0.25000   1.000
    C202    C    0.24000   0.19070   0.25000   1.000
    H118    H    0.20900   0.22350   0.25000   1.000
    C203    C    0.90160   0.66570   0.25000   1.000
    H119    H    0.93330   0.63360   0.25000   1.000
    C204    C    0.95070   0.76000   0.25000   1.000
    H120    H    0.01450   0.79100   0.25000   1.000
