# CIF file generated by openbabel 2.4.1, see http://openbabel.sf.net
data_I
_chemical_name_common 'AVEMOE_clean'
_cell_length_a 6.9008
_cell_length_b 10.3551
_cell_length_c 16.6597
_cell_angle_alpha 90
_cell_angle_beta 90
_cell_angle_gamma 90
_space_group_name_H-M_alt 'P 1'
_space_group_name_Hall 'P 1'
loop_
    _symmetry_equiv_pos_as_xyz
    x,y,z
loop_
    _atom_site_label
    _atom_site_type_symbol
    _atom_site_fract_x
    _atom_site_fract_y
    _atom_site_fract_z
    _atom_site_occupancy
    Ag1     Ag   0.61160   0.01340   0.28457   1.000
    Ag2     Ag   0.37773   0.22839   0.92840   1.000
    Ag3     Ag   0.11160   0.51340   0.21543   1.000
    Ag4     Ag   0.87773   0.72839   0.57160   1.000
    P1      P    0.00389   0.06061   0.15152   1.000
    P2      P    0.50389   0.56061   0.34848   1.000
    H1      H    0.17160   0.01090   0.26780   1.000
    H2      H    0.25270   0.92880   0.19590   1.000
    H3      H    0.87490   0.26750   0.14610   1.000
    H4      H    0.92210   0.23100   0.23560   1.000
    H5      H    0.16030   0.99480   0.03520   1.000
    H6      H    0.02390   0.11250   0.01630   1.000
    H7      H    0.54880   0.16790   0.11290   1.000
    H8      H    0.46700   0.02860   0.09880   1.000
    H9      H    0.12290   0.32890   0.05680   1.000
    H10     H    0.33490   0.35510   0.08610   1.000
    H11     H    0.25710   0.23380   0.28110   1.000
    H12     H    0.41940   0.29590   0.22790   1.000
    H13     H    0.67160   0.51090   0.23220   1.000
    H14     H    0.75270   0.42880   0.30410   1.000
    H15     H    0.37490   0.76750   0.35390   1.000
    H16     H    0.42210   0.73100   0.26440   1.000
    H17     H    0.66030   0.49480   0.46480   1.000
    H18     H    0.52390   0.61250   0.48370   1.000
    H19     H    0.04880   0.66790   0.38710   1.000
    H20     H    0.96700   0.52860   0.40120   1.000
    H21     H    0.62290   0.82890   0.44320   1.000
    H22     H    0.83490   0.85510   0.41390   1.000
    H23     H    0.75710   0.73380   0.21890   1.000
    H24     H    0.91940   0.79590   0.27210   1.000
    C1      C    0.20890   0.01420   0.21170   1.000
    C2      C    0.97000   0.22710   0.18090   1.000
    C3      C    0.11680   0.07830   0.05440   1.000
    C4      C    0.43310   0.11500   0.11640   1.000
    C5      C    0.22590   0.29650   0.09100   1.000
    C6      C    0.30720   0.23940   0.22680   1.000
    C7      C    0.70890   0.51420   0.28830   1.000
    C8      C    0.47000   0.72710   0.31910   1.000
    C9      C    0.61680   0.57830   0.44560   1.000
    C10     C    0.93310   0.61500   0.38360   1.000
    C11     C    0.72590   0.79650   0.40900   1.000
    C12     C    0.80720   0.73940   0.27320   1.000
    N1      N    0.36960   0.10930   0.20087   1.000
    N2      N    0.28540   0.16800   0.06140   1.000
    N3      N    0.15790   0.29770   0.17501   1.000
    N4      N    0.86960   0.60930   0.29913   1.000
    N5      N    0.78540   0.66800   0.43860   1.000
    N6      N    0.65790   0.79770   0.32499   1.000
    O1      O    0.82930   0.97530   0.15552   1.000
    O2      O    0.32930   0.47530   0.34448   1.000
    Ag5     Ag   0.11160   0.98660   0.71543   1.000
    Ag6     Ag   0.87773   0.77161   0.07160   1.000
    Ag7     Ag   0.61160   0.48660   0.78457   1.000
    Ag8     Ag   0.37773   0.27161   0.42840   1.000
    P3      P    0.50389   0.93939   0.84848   1.000
    P4      P    0.00389   0.43939   0.65152   1.000
    H25     H    0.67160   0.98910   0.73220   1.000
    H26     H    0.75270   0.07120   0.80410   1.000
    H27     H    0.37490   0.73250   0.85390   1.000
    H28     H    0.42210   0.76900   0.76440   1.000
    H29     H    0.66030   0.00520   0.96480   1.000
    H30     H    0.52390   0.88750   0.98370   1.000
    H31     H    0.04880   0.83210   0.88710   1.000
    H32     H    0.96700   0.97140   0.90120   1.000
    H33     H    0.62290   0.67110   0.94320   1.000
    H34     H    0.83490   0.64490   0.91390   1.000
    H35     H    0.75710   0.76620   0.71890   1.000
    H36     H    0.91940   0.70410   0.77210   1.000
    H37     H    0.17160   0.48910   0.76780   1.000
    H38     H    0.25270   0.57120   0.69590   1.000
    H39     H    0.87490   0.23250   0.64610   1.000
    H40     H    0.92210   0.26900   0.73560   1.000
    H41     H    0.16030   0.50520   0.53520   1.000
    H42     H    0.02390   0.38750   0.51630   1.000
    H43     H    0.54880   0.33210   0.61290   1.000
    H44     H    0.46700   0.47140   0.59880   1.000
    H45     H    0.12290   0.17110   0.55680   1.000
    H46     H    0.33490   0.14490   0.58610   1.000
    H47     H    0.25710   0.26620   0.78110   1.000
    H48     H    0.41940   0.20410   0.72790   1.000
    C13     C    0.70890   0.98580   0.78830   1.000
    C14     C    0.47000   0.77290   0.81910   1.000
    C15     C    0.61680   0.92170   0.94560   1.000
    C16     C    0.93310   0.88500   0.88360   1.000
    C17     C    0.72590   0.70350   0.90900   1.000
    C18     C    0.80720   0.76060   0.77320   1.000
    C19     C    0.20890   0.48580   0.71170   1.000
    C20     C    0.97000   0.27290   0.68090   1.000
    C21     C    0.11680   0.42170   0.55440   1.000
    C22     C    0.43310   0.38500   0.61640   1.000
    C23     C    0.22590   0.20350   0.59100   1.000
    C24     C    0.30720   0.26060   0.72680   1.000
    N7      N    0.86960   0.89070   0.79913   1.000
    N8      N    0.78540   0.83200   0.93860   1.000
    N9      N    0.65790   0.70230   0.82499   1.000
    N10     N    0.36960   0.39070   0.70087   1.000
    N11     N    0.28540   0.33200   0.56140   1.000
    N12     N    0.15790   0.20230   0.67501   1.000
    O3      O    0.32930   0.02470   0.84448   1.000
    O4      O    0.82930   0.52470   0.65552   1.000
