# CIF file generated by openbabel 2.4.1, see http://openbabel.sf.net
data_I
_chemical_name_common 'image0'
_cell_length_a 10.0245
_cell_length_b 10.8912
_cell_length_c 20.7145
_cell_angle_alpha 90
_cell_angle_beta 90
_cell_angle_gamma 90
_space_group_name_H-M_alt 'P 1'
_space_group_name_Hall 'P 1'
loop_
    _symmetry_equiv_pos_as_xyz
    x,y,z
loop_
    _atom_site_label
    _atom_site_type_symbol
    _atom_site_fract_x
    _atom_site_fract_y
    _atom_site_fract_z
    _atom_site_occupancy
    N1      N    0.12100   0.96870   0.26420   1.000
    H1      H    0.11670   0.05510   0.25280   1.000
    O1      O    0.31960   0.88800   0.18910   1.000
    C1      C    0.34760   0.90870   0.24720   1.000
    O2      O    0.46580   0.90130   0.26730   1.000
    C2      C    0.24340   0.93320   0.29670   1.000
    H2      H    0.22530   0.85380   0.31940   1.000
    C3      C    0.29260   0.02440   0.34750   1.000
    H3      H    0.22480   0.03210   0.38210   1.000
    H4      H    0.37590   0.99310   0.36720   1.000
    O3      O    0.31780   0.16880   0.26040   1.000
    C4      C    0.31830   0.14880   0.31840   1.000
    O4      O    0.36030   0.23270   0.35700   1.000
    O5      O    0.90850   0.90820   0.19000   1.000
    C5      C    0.87940   0.92360   0.24900   1.000
    O6      O    0.75740   0.92560   0.26990   1.000
    C6      C    0.98710   0.93830   0.29860   1.000
    H5      H    0.99870   0.85660   0.31980   1.000
    C7      C    0.95280   0.03010   0.35180   1.000
    H6      H    0.87500   0.99940   0.37650   1.000
    H7      H    0.02910   0.03660   0.38200   1.000
    O7      O    0.93530   0.18010   0.26770   1.000
    C8      C    0.92080   0.15610   0.32530   1.000
    O8      O    0.89480   0.24020   0.36590   1.000
    Zn1     Zn   0.11579   0.89327   0.17239   1.000
    N2      N    0.11680   0.03190   0.10490   1.000
    C9      C    0.03970   0.02440   0.05270   1.000
    H8      H    0.99350   0.94960   0.04510   1.000
    C10     C    0.02280   0.11990   0.00840   1.000
    H9      H    0.95240   0.11910   0.97770   1.000
    C11     C    0.11230   0.21460   0.01140   1.000
    C12     C    0.19690   0.22100   0.06240   1.000
    H10     H    0.25410   0.29010   0.06690   1.000
    C13     C    0.20090   0.12760   0.10820   1.000
    H11     H    0.26410   0.13170   0.14230   1.000
    N3      N    0.11780   0.48940   0.86080   1.000
    C14     C    0.16880   0.51010   0.91990   1.000
    H12     H    0.20470   0.58910   0.92870   1.000
    C15     C    0.17210   0.42250   0.96890   1.000
    H13     H    0.21330   0.43960   0.00920   1.000
    C16     C    0.11410   0.31090   0.95710   1.000
    C17     C    0.06400   0.28710   0.89800   1.000
    H14     H    0.03010   0.20770   0.88850   1.000
    C18     C    0.06140   0.37740   0.85090   1.000
    H15     H    0.01920   0.36070   0.81080   1.000
    Zn2     Zn   0.62237   0.87934   0.20751   1.000
    C19     C    0.52900   0.12400   0.01510   1.000
    C20     C    0.62800   0.21120   0.01490   1.000
    C21     C    0.71800   0.21700   0.06310   1.000
    C22     C    0.70570   0.13550   0.11400   1.000
    C23     C    0.67750   0.50610   0.92100   1.000
    C24     C    0.68230   0.42190   0.97100   1.000
    C25     C    0.62260   0.31040   0.96080   1.000
    C26     C    0.56860   0.28650   0.90170   1.000
    C27     C    0.56820   0.37690   0.85450   1.000
    C28     C    0.86570   0.91800   0.25160   1.000
    C29     C    0.75710   0.93630   0.30030   1.000
    C30     C    0.50190   0.93920   0.29730   1.000
    C31     C    0.39620   0.92100   0.24660   1.000
    C32     C    0.79500   0.02360   0.35520   1.000
    C33     C    0.80600   0.15200   0.32810   1.000
    C34     C    0.45600   0.03670   0.34670   1.000
    C35     C    0.42050   0.15670   0.31380   1.000
    C36     C    0.53900   0.02800   0.05940   1.000
    H16     H    0.47940   0.10120   0.98250   1.000
    H17     H    0.77140   0.28780   0.06780   1.000
    H18     H    0.75790   0.14730   0.15180   1.000
    H19     H    0.71240   0.58560   0.92960   1.000
    H20     H    0.72520   0.44070   0.01070   1.000
    H21     H    0.53130   0.20810   0.89290   1.000
    H22     H    0.52320   0.36060   0.81510   1.000
    H23     H    0.63340   0.05530   0.25240   1.000
    H24     H    0.73970   0.85430   0.32040   1.000
    H25     H    0.51250   0.85970   0.32100   1.000
    H26     H    0.72680   0.02110   0.38950   1.000
    H27     H    0.88190   0.99820   0.37420   1.000
    H28     H    0.37790   0.00560   0.37070   1.000
    H29     H    0.52900   0.05140   0.37820   1.000
    H30     H    0.51270   0.95660   0.05650   1.000
    N4      N    0.63800   0.96980   0.26540   1.000
    N5      N    0.63000   0.03230   0.10740   1.000
    N6      N    0.62880   0.48700   0.86170   1.000
    O9      O    0.83990   0.89300   0.19350   1.000
    O10     O    0.98220   0.91300   0.27560   1.000
    O11     O    0.43060   0.89980   0.18910   1.000
    O12     O    0.27560   0.91600   0.26780   1.000
    O13     O    0.81890   0.17540   0.27000   1.000
    O14     O    0.83670   0.23060   0.37130   1.000
    O15     O    0.46400   0.17600   0.25860   1.000
    O16     O    0.37800   0.24200   0.34980   1.000
    Zn3     Zn   0.64070   0.89270   0.17263   1.000
    Zn4     Zn   0.13330   0.88100   0.20929   1.000
    N7      N    0.37900   0.03130   0.76420   1.000
    H31     H    0.38330   0.94490   0.75280   1.000
    O17     O    0.18040   0.11200   0.68910   1.000
    C37     C    0.15240   0.09130   0.74720   1.000
    O18     O    0.03420   0.09870   0.76730   1.000
    C38     C    0.25660   0.06680   0.79670   1.000
    H32     H    0.27470   0.14620   0.81940   1.000
    C39     C    0.20740   0.97560   0.84750   1.000
    H33     H    0.27520   0.96790   0.88210   1.000
    H34     H    0.12410   0.00690   0.86720   1.000
    O19     O    0.18220   0.83120   0.76040   1.000
    C40     C    0.18170   0.85120   0.81840   1.000
    O20     O    0.13970   0.76730   0.85700   1.000
    O21     O    0.59150   0.09180   0.69000   1.000
    C41     C    0.62060   0.07640   0.74900   1.000
    O22     O    0.74260   0.07440   0.76990   1.000
    C42     C    0.51290   0.06170   0.79860   1.000
    H35     H    0.50130   0.14340   0.81980   1.000
    C43     C    0.54720   0.96990   0.85180   1.000
    H36     H    0.62500   0.00060   0.87650   1.000
    H37     H    0.47090   0.96340   0.88200   1.000
    O23     O    0.56470   0.81990   0.76770   1.000
    C44     C    0.57920   0.84390   0.82530   1.000
    O24     O    0.60520   0.75980   0.86590   1.000
    Zn5     Zn   0.38421   0.10673   0.67239   1.000
    N8      N    0.38320   0.96810   0.60490   1.000
    C45     C    0.46030   0.97560   0.55270   1.000
    H38     H    0.50650   0.05040   0.54510   1.000
    C46     C    0.47720   0.88010   0.50840   1.000
    H39     H    0.54760   0.88090   0.47770   1.000
    C47     C    0.38770   0.78540   0.51140   1.000
    C48     C    0.30310   0.77900   0.56240   1.000
    H40     H    0.24590   0.70990   0.56690   1.000
    C49     C    0.29910   0.87240   0.60820   1.000
    H41     H    0.23590   0.86830   0.64230   1.000
    N9      N    0.38220   0.51060   0.36080   1.000
    C50     C    0.33120   0.48990   0.41990   1.000
    H42     H    0.29530   0.41090   0.42870   1.000
    C51     C    0.32790   0.57750   0.46890   1.000
    H43     H    0.28670   0.56040   0.50920   1.000
    C52     C    0.38590   0.68910   0.45710   1.000
    C53     C    0.43600   0.71290   0.39800   1.000
    H44     H    0.46990   0.79230   0.38850   1.000
    C54     C    0.43860   0.62260   0.35090   1.000
    H45     H    0.48080   0.63930   0.31080   1.000
    Zn6     Zn   0.87763   0.12066   0.70751   1.000
    C55     C    0.97100   0.87600   0.51510   1.000
    C56     C    0.87200   0.78880   0.51490   1.000
    C57     C    0.78200   0.78300   0.56310   1.000
    C58     C    0.79430   0.86450   0.61400   1.000
    C59     C    0.82250   0.49390   0.42100   1.000
    C60     C    0.81770   0.57810   0.47100   1.000
    C61     C    0.87740   0.68960   0.46080   1.000
    C62     C    0.93140   0.71350   0.40170   1.000
    C63     C    0.93180   0.62310   0.35450   1.000
    C64     C    0.63430   0.08200   0.75160   1.000
    C65     C    0.74290   0.06370   0.80030   1.000
    C66     C    0.99810   0.06080   0.79730   1.000
    C67     C    0.10380   0.07900   0.74660   1.000
    C68     C    0.70500   0.97640   0.85520   1.000
    C69     C    0.69400   0.84800   0.82810   1.000
    C70     C    0.04400   0.96330   0.84670   1.000
    C71     C    0.07950   0.84330   0.81380   1.000
    C72     C    0.96100   0.97200   0.55940   1.000
    H46     H    0.02060   0.89880   0.48250   1.000
    H47     H    0.72860   0.71220   0.56780   1.000
    H48     H    0.74210   0.85270   0.65180   1.000
    H49     H    0.78760   0.41440   0.42960   1.000
    H50     H    0.77480   0.55930   0.51070   1.000
    H51     H    0.96870   0.79190   0.39290   1.000
    H52     H    0.97680   0.63940   0.31510   1.000
    H53     H    0.86660   0.94470   0.75240   1.000
    H54     H    0.76030   0.14570   0.82040   1.000
    H55     H    0.98750   0.14030   0.82100   1.000
    H56     H    0.77320   0.97890   0.88950   1.000
    H57     H    0.61810   0.00180   0.87420   1.000
    H58     H    0.12210   0.99440   0.87070   1.000
    H59     H    0.97100   0.94860   0.87820   1.000
    H60     H    0.98730   0.04340   0.55650   1.000
    N10     N    0.86200   0.03020   0.76540   1.000
    N11     N    0.87000   0.96770   0.60740   1.000
    N12     N    0.87120   0.51300   0.36170   1.000
    O25     O    0.66010   0.10700   0.69350   1.000
    O26     O    0.51780   0.08700   0.77560   1.000
    O27     O    0.06940   0.10020   0.68910   1.000
    O28     O    0.22440   0.08400   0.76780   1.000
    O29     O    0.68110   0.82460   0.77000   1.000
    O30     O    0.66330   0.76940   0.87130   1.000
    O31     O    0.03600   0.82400   0.75860   1.000
    O32     O    0.12200   0.75800   0.84980   1.000
    Zn7     Zn   0.85930   0.10730   0.67263   1.000
    Zn8     Zn   0.36670   0.11900   0.70929   1.000
    N13     N    0.87900   0.46870   0.23580   1.000
    H61     H    0.88330   0.55510   0.24720   1.000
    O33     O    0.68040   0.38800   0.31090   1.000
    C73     C    0.65240   0.40870   0.25280   1.000
    O34     O    0.53420   0.40130   0.23270   1.000
    C74     C    0.75660   0.43320   0.20330   1.000
    H62     H    0.77470   0.35380   0.18060   1.000
    C75     C    0.70740   0.52440   0.15250   1.000
    H63     H    0.77520   0.53210   0.11790   1.000
    H64     H    0.62410   0.49310   0.13280   1.000
    O35     O    0.68220   0.66880   0.23960   1.000
    C76     C    0.68170   0.64880   0.18160   1.000
    O36     O    0.63970   0.73270   0.14300   1.000
    O37     O    0.09150   0.40820   0.31000   1.000
    C77     C    0.12060   0.42360   0.25100   1.000
    O38     O    0.24260   0.42560   0.23010   1.000
    C78     C    0.01290   0.43830   0.20140   1.000
    H65     H    0.00130   0.35660   0.18020   1.000
    C79     C    0.04720   0.53010   0.14820   1.000
    H66     H    0.12500   0.49940   0.12350   1.000
    H67     H    0.97090   0.53660   0.11800   1.000
    O39     O    0.06470   0.68010   0.23230   1.000
    C80     C    0.07920   0.65610   0.17470   1.000
    O40     O    0.10520   0.74020   0.13410   1.000
    Zn9     Zn   0.88421   0.39327   0.32761   1.000
    N14     N    0.88320   0.53190   0.39510   1.000
    C81     C    0.96030   0.52440   0.44730   1.000
    H68     H    0.00650   0.44960   0.45490   1.000
    C82     C    0.97720   0.61990   0.49160   1.000
    H69     H    0.04760   0.61910   0.52230   1.000
    C83     C    0.88770   0.71460   0.48860   1.000
    C84     C    0.80310   0.72100   0.43760   1.000
    H70     H    0.74590   0.79010   0.43310   1.000
    C85     C    0.79910   0.62760   0.39180   1.000
    H71     H    0.73590   0.63170   0.35770   1.000
    N15     N    0.88220   0.98940   0.63920   1.000
    C86     C    0.83120   0.01010   0.58010   1.000
    H72     H    0.79530   0.08910   0.57130   1.000
    C87     C    0.82790   0.92250   0.53110   1.000
    H73     H    0.78670   0.93960   0.49080   1.000
    C88     C    0.88590   0.81090   0.54290   1.000
    C89     C    0.93600   0.78710   0.60200   1.000
    H74     H    0.96990   0.70770   0.61150   1.000
    C90     C    0.93860   0.87740   0.64910   1.000
    H75     H    0.98080   0.86070   0.68920   1.000
    Zn10    Zn   0.37763   0.37934   0.29249   1.000
    C91     C    0.47100   0.62400   0.48490   1.000
    C92     C    0.37200   0.71120   0.48510   1.000
    C93     C    0.28200   0.71700   0.43690   1.000
    C94     C    0.29430   0.63550   0.38600   1.000
    C95     C    0.32250   0.00610   0.57900   1.000
    C96     C    0.31770   0.92190   0.52900   1.000
    C97     C    0.37740   0.81040   0.53920   1.000
    C98     C    0.43140   0.78650   0.59830   1.000
    C99     C    0.43180   0.87690   0.64550   1.000
    C100    C    0.13430   0.41800   0.24840   1.000
    C101    C    0.24290   0.43630   0.19970   1.000
    C102    C    0.49810   0.43920   0.20270   1.000
    C103    C    0.60380   0.42100   0.25340   1.000
    C104    C    0.20500   0.52360   0.14480   1.000
    C105    C    0.19400   0.65200   0.17190   1.000
    C106    C    0.54400   0.53670   0.15330   1.000
    C107    C    0.57950   0.65670   0.18620   1.000
    C108    C    0.46100   0.52800   0.44060   1.000
    H76     H    0.52060   0.60120   0.51750   1.000
    H77     H    0.22860   0.78780   0.43220   1.000
    H78     H    0.24210   0.64730   0.34820   1.000
    H79     H    0.28760   0.08560   0.57040   1.000
    H80     H    0.27480   0.94070   0.48930   1.000
    H81     H    0.46870   0.70810   0.60710   1.000
    H82     H    0.47680   0.86060   0.68490   1.000
    H83     H    0.36660   0.55530   0.24760   1.000
    H84     H    0.26030   0.35430   0.17960   1.000
    H85     H    0.48750   0.35970   0.17900   1.000
    H86     H    0.27320   0.52110   0.11050   1.000
    H87     H    0.11810   0.49820   0.12580   1.000
    H88     H    0.62210   0.50560   0.12930   1.000
    H89     H    0.47100   0.55140   0.12180   1.000
    H90     H    0.48730   0.45660   0.44350   1.000
    N16     N    0.36200   0.46980   0.23460   1.000
    N17     N    0.37000   0.53230   0.39260   1.000
    N18     N    0.37120   0.98700   0.63830   1.000
    O41     O    0.16010   0.39300   0.30650   1.000
    O42     O    0.01780   0.41300   0.22440   1.000
    O43     O    0.56940   0.39980   0.31090   1.000
    O44     O    0.72440   0.41600   0.23220   1.000
    O45     O    0.18110   0.67540   0.23000   1.000
    O46     O    0.16330   0.73060   0.12870   1.000
    O47     O    0.53600   0.67600   0.24140   1.000
    O48     O    0.62200   0.74200   0.15020   1.000
    Zn11    Zn   0.35930   0.39270   0.32737   1.000
    Zn12    Zn   0.86670   0.38100   0.29071   1.000
    N19     N    0.62100   0.53130   0.73580   1.000
    H91     H    0.61670   0.44490   0.74720   1.000
    O49     O    0.81960   0.61200   0.81090   1.000
    C109    C    0.84760   0.59130   0.75280   1.000
    O50     O    0.96580   0.59870   0.73270   1.000
    C110    C    0.74340   0.56680   0.70330   1.000
    H92     H    0.72530   0.64620   0.68060   1.000
    C111    C    0.79260   0.47560   0.65250   1.000
    H93     H    0.72480   0.46790   0.61790   1.000
    H94     H    0.87590   0.50690   0.63280   1.000
    O51     O    0.81780   0.33120   0.73960   1.000
    C112    C    0.81830   0.35120   0.68160   1.000
    O52     O    0.86030   0.26730   0.64300   1.000
    O53     O    0.40850   0.59180   0.81000   1.000
    C113    C    0.37940   0.57640   0.75100   1.000
    O54     O    0.25740   0.57440   0.73010   1.000
    C114    C    0.48710   0.56170   0.70140   1.000
    H95     H    0.49870   0.64340   0.68020   1.000
    C115    C    0.45280   0.46990   0.64820   1.000
    H96     H    0.37500   0.50060   0.62350   1.000
    H97     H    0.52910   0.46340   0.61800   1.000
    O55     O    0.43530   0.31990   0.73230   1.000
    C116    C    0.42080   0.34390   0.67470   1.000
    O56     O    0.39480   0.25980   0.63410   1.000
    Zn13    Zn   0.61579   0.60673   0.82761   1.000
    N20     N    0.61680   0.46810   0.89510   1.000
    C117    C    0.53970   0.47560   0.94730   1.000
    H98     H    0.49350   0.55040   0.95490   1.000
    C118    C    0.52280   0.38010   0.99160   1.000
    H99     H    0.45240   0.38090   0.02230   1.000
    C119    C    0.61230   0.28540   0.98860   1.000
    C120    C    0.69690   0.27900   0.93760   1.000
    H100    H    0.75410   0.20990   0.93310   1.000
    C121    C    0.70090   0.37240   0.89180   1.000
    H101    H    0.76410   0.36830   0.85770   1.000
    N21     N    0.61780   0.01060   0.13920   1.000
    C122    C    0.66880   0.98990   0.08010   1.000
    H102    H    0.70470   0.91090   0.07130   1.000
    C123    C    0.67210   0.07750   0.03110   1.000
    H103    H    0.71330   0.06040   0.99080   1.000
    C124    C    0.61410   0.18910   0.04290   1.000
    C125    C    0.56400   0.21290   0.10200   1.000
    H104    H    0.53010   0.29230   0.11150   1.000
    C126    C    0.56140   0.12260   0.14910   1.000
    H105    H    0.51920   0.13930   0.18920   1.000
    Zn14    Zn   0.12237   0.62066   0.79249   1.000
    C127    C    0.02900   0.37600   0.98490   1.000
    C128    C    0.12800   0.28880   0.98510   1.000
    C129    C    0.21800   0.28300   0.93690   1.000
    C130    C    0.20570   0.36450   0.88600   1.000
    C131    C    0.17750   0.99390   0.07900   1.000
    C132    C    0.18230   0.07810   0.02900   1.000
    C133    C    0.12260   0.18960   0.03920   1.000
    C134    C    0.06860   0.21350   0.09830   1.000
    C135    C    0.06820   0.12310   0.14550   1.000
    C136    C    0.36570   0.58200   0.74840   1.000
    C137    C    0.25710   0.56370   0.69970   1.000
    C138    C    0.00190   0.56080   0.70270   1.000
    C139    C    0.89620   0.57900   0.75340   1.000
    C140    C    0.29500   0.47640   0.64480   1.000
    C141    C    0.30600   0.34800   0.67190   1.000
    C142    C    0.95600   0.46330   0.65330   1.000
    C143    C    0.92050   0.34330   0.68620   1.000
    C144    C    0.03900   0.47200   0.94060   1.000
    H106    H    0.97940   0.39880   0.01750   1.000
    H107    H    0.27140   0.21220   0.93220   1.000
    H108    H    0.25790   0.35270   0.84820   1.000
    H109    H    0.21240   0.91440   0.07040   1.000
    H110    H    0.22520   0.05930   0.98930   1.000
    H111    H    0.03130   0.29190   0.10710   1.000
    H112    H    0.02320   0.13940   0.18490   1.000
    H113    H    0.13340   0.44470   0.74760   1.000
    H114    H    0.23970   0.64570   0.67960   1.000
    H115    H    0.01250   0.64030   0.67900   1.000
    H116    H    0.22680   0.47890   0.61050   1.000
    H117    H    0.38190   0.50180   0.62580   1.000
    H118    H    0.87790   0.49440   0.62930   1.000
    H119    H    0.02900   0.44860   0.62180   1.000
    H120    H    0.01270   0.54340   0.94350   1.000
    N22     N    0.13800   0.53020   0.73460   1.000
    N23     N    0.13000   0.46770   0.89260   1.000
    N24     N    0.12880   0.01300   0.13830   1.000
    O57     O    0.33990   0.60700   0.80650   1.000
    O58     O    0.48220   0.58700   0.72440   1.000
    O59     O    0.93060   0.60020   0.81090   1.000
    O60     O    0.77560   0.58400   0.73220   1.000
    O61     O    0.31890   0.32460   0.73000   1.000
    O62     O    0.33670   0.26940   0.62870   1.000
    O63     O    0.96400   0.32400   0.74140   1.000
    O64     O    0.87800   0.25800   0.65020   1.000
    Zn15    Zn   0.14070   0.60730   0.82737   1.000
    Zn16    Zn   0.63330   0.61900   0.79071   1.000
