data_functionalizedCrystal
_audit_creation_method	'EQeq! by Chris Wilmer'
_symmetry_space_group_name_H-M	'P1'
_symmetry_Int_Tables_number	1
_symmetry_cell_setting	triclinic
loop_
_symmetry_equiv_pos_as_xyz
  x,y,z
_cell_length_a	14.2066
_cell_length_b	14.2066
_cell_length_c	19.8137
_cell_angle_alpha	90
_cell_angle_beta	90
_cell_angle_gamma	90
loop_
_atom_site_label
_atom_site_type_symbol
_atom_site_fract_x
_atom_site_fract_y
_atom_site_fract_z
_atom_site_charge
Mof_N 	N 	0.1731	0.105	0.0681	-0.158
Mof_C 	C 	0.2271	0.1196	0.122	-0.178
Mof_H 	H 	0.2789	0.0828	0.1333	0.145
Mof_C 	C 	0.2709	0.1553	0.1922	0.465
Mof_H 	H 	0.2969	0.1004	0.1747	-0.201
Mof_O 	O 	0.1987	0.0888	0.0742	-0.334
Mof_N 	N 	0.6731	0.605	0.5681	-0.141
Mof_C 	C 	0.7271	0.6196	0.622	-0.153
Mof_H 	H 	0.7789	0.5828	0.6333	0.152
Mof_C 	C 	0.7709	0.6553	0.6922	0.453
Mof_H 	H 	0.7969	0.6004	0.6747	-0.182
Mof_O 	O 	0.6987	0.5888	0.5742	-0.322
Mof_N 	N 	0.8269	0.895	0.0681	-0.14
Mof_C 	C 	0.7729	0.8804	0.122	-0.152
Mof_H 	H 	0.7211	0.9172	0.1333	0.151
Mof_C 	C 	0.7291	0.8447	0.1922	0.459
Mof_H 	H 	0.7031	0.8996	0.1747	-0.184
Mof_O 	O 	0.8013	0.9112	0.0742	-0.32
Mof_N 	N 	0.3269	0.395	0.5681	-0.145
Mof_C 	C 	0.2729	0.3804	0.622	-0.161
Mof_H 	H 	0.2211	0.4172	0.6333	0.148
Mof_C 	C 	0.2291	0.3447	0.6922	0.45
Mof_H 	H 	0.2031	0.3996	0.6747	-0.187
Mof_O 	O 	0.3013	0.4112	0.5742	-0.323
Mof_N 	N 	0.895	0.1731	0.0681	-0.13
Mof_C 	C 	0.8804	0.2271	0.122	-0.159
Mof_H 	H 	0.9172	0.2789	0.1333	0.155
Mof_C 	C 	0.8447	0.2709	0.1922	0.461
Mof_H 	H 	0.8996	0.2969	0.1747	-0.188
Mof_O 	O 	0.9112	0.1987	0.0742	-0.341
Mof_N 	N 	0.395	0.6731	0.5681	-0.14
Mof_C 	C 	0.3804	0.7271	0.622	-0.156
Mof_H 	H 	0.4172	0.7789	0.6333	0.152
Mof_C 	C 	0.3447	0.7709	0.6922	0.453
Mof_H 	H 	0.3996	0.7969	0.6747	-0.183
Mof_O 	O 	0.4112	0.6987	0.5742	-0.325
Mof_N 	N 	0.105	0.8269	0.0681	-0.169
Mof_C 	C 	0.1196	0.7729	0.122	-0.173
Mof_H 	H 	0.0828	0.7211	0.1333	0.141
Mof_C 	C 	0.1553	0.7291	0.1922	0.462
Mof_H 	H 	0.1004	0.7031	0.1747	-0.198
Mof_O 	O 	0.0888	0.8013	0.0742	-0.314
Mof_N 	N 	0.605	0.3269	0.5681	-0.146
Mof_C 	C 	0.6196	0.2729	0.622	-0.158
Mof_H 	H 	0.5828	0.2211	0.6333	0.148
Mof_C 	C 	0.6553	0.2291	0.6922	0.451
Mof_H 	H 	0.6004	0.2031	0.6747	-0.187
Mof_O 	O 	0.5888	0.3013	0.5742	-0.32
Mof_N 	N 	0.8269	0.105	0.9319	-0.135
Mof_C 	C 	0.7729	0.1196	0.878	-0.155
Mof_H 	H 	0.7211	0.0828	0.8667	0.149
Mof_C 	C 	0.7291	0.1553	0.8078	0.444
Mof_H 	H 	0.7031	0.1004	0.8253	-0.185
Mof_O 	O 	0.8013	0.0888	0.9258	-0.282
Mof_N 	N 	0.3269	0.605	0.4319	-0.147
Mof_C 	C 	0.2729	0.6196	0.378	-0.157
Mof_H 	H 	0.2211	0.5828	0.3667	0.148
Mof_C 	C 	0.2291	0.6553	0.3078	0.457
Mof_H 	H 	0.2031	0.6004	0.3253	-0.192
Mof_O 	O 	0.3013	0.5888	0.4258	-0.322
Mof_N 	N 	0.1731	0.895	0.9319	-0.099
Mof_C 	C 	0.2271	0.8804	0.878	-0.141
Mof_H 	H 	0.2789	0.9172	0.8667	0.162
Mof_C 	C 	0.2709	0.8447	0.8078	0.444
Mof_H 	H 	0.2969	0.8996	0.8253	-0.175
Mof_O 	O 	0.1987	0.9112	0.9258	-0.307
Mof_N 	N 	0.6731	0.395	0.4319	-0.14
Mof_C 	C 	0.7271	0.3804	0.378	-0.155
Mof_H 	H 	0.7789	0.4172	0.3667	0.152
Mof_C 	C 	0.7709	0.3447	0.3078	0.459
Mof_H 	H 	0.7969	0.3996	0.3253	-0.188
Mof_O 	O 	0.6987	0.4112	0.4258	-0.326
Mof_N 	N 	0.105	0.1731	0.9319	-0.125
Mof_C 	C 	0.1196	0.2271	0.878	-0.16
Mof_H 	H 	0.0828	0.2789	0.8667	0.152
Mof_C 	C 	0.1553	0.2709	0.8078	0.446
Mof_H 	H 	0.1004	0.2969	0.8253	-0.187
Mof_O 	O 	0.0888	0.1987	0.9258	-0.301
Mof_N 	N 	0.605	0.6731	0.4319	-0.142
Mof_C 	C 	0.6196	0.7271	0.378	-0.152
Mof_H 	H 	0.5828	0.7789	0.3667	0.152
Mof_C 	C 	0.6553	0.7709	0.3078	0.459
Mof_H 	H 	0.6004	0.7969	0.3253	-0.187
Mof_O 	O 	0.5888	0.6987	0.4258	-0.324
Mof_N 	N 	0.895	0.8269	0.9319	-0.108
Mof_C 	C 	0.8804	0.7729	0.878	-0.135
Mof_H 	H 	0.9172	0.7211	0.8667	0.159
Mof_C 	C 	0.8447	0.7291	0.8078	0.442
Mof_H 	H 	0.8996	0.7031	0.8253	-0.172
Mof_O 	O 	0.9112	0.8013	0.9258	-0.289
Mof_N 	N 	0.395	0.3269	0.4319	-0.146
Mof_C 	C 	0.3804	0.2729	0.378	-0.161
Mof_H 	H 	0.4172	0.2211	0.3667	0.148
Mof_C 	C 	0.3447	0.2291	0.3078	0.456
Mof_H 	H 	0.3996	0.2031	0.3253	-0.193
Mof_O 	O 	0.4112	0.3013	0.4258	-0.324
Mof_N 	N 	0.8269	0.895	0.9319	-0.108
Mof_C 	C 	0.7729	0.8804	0.878	-0.135
Mof_H 	H 	0.7211	0.9172	0.8667	0.159
Mof_C 	C 	0.7291	0.8447	0.8078	0.442
Mof_H 	H 	0.7031	0.8996	0.8253	-0.172
Mof_O 	O 	0.8013	0.9112	0.9258	-0.289
Mof_N 	N 	0.3269	0.395	0.4319	-0.146
Mof_C 	C 	0.2729	0.3804	0.378	-0.161
Mof_H 	H 	0.2211	0.4172	0.3667	0.148
Mof_C 	C 	0.2291	0.3447	0.3078	0.456
Mof_H 	H 	0.2031	0.3996	0.3253	-0.193
Mof_O 	O 	0.3013	0.4112	0.4258	-0.324
Mof_N 	N 	0.1731	0.105	0.9319	-0.125
Mof_C 	C 	0.2271	0.1196	0.878	-0.16
Mof_H 	H 	0.2789	0.0828	0.8667	0.152
Mof_C 	C 	0.2709	0.1553	0.8078	0.446
Mof_H 	H 	0.2969	0.1004	0.8253	-0.187
Mof_O 	O 	0.1987	0.0888	0.9258	-0.301
Mof_N 	N 	0.6731	0.605	0.4319	-0.142
Mof_C 	C 	0.7271	0.6196	0.378	-0.152
Mof_H 	H 	0.7789	0.5828	0.3667	0.152
Mof_C 	C 	0.7709	0.6553	0.3078	0.459
Mof_H 	H 	0.7969	0.6004	0.3253	-0.187
Mof_O 	O 	0.6987	0.5888	0.4258	-0.324
Mof_N 	N 	0.105	0.8269	0.9319	-0.135
Mof_C 	C 	0.1196	0.7729	0.878	-0.155
Mof_H 	H 	0.0828	0.7211	0.8667	0.149
Mof_C 	C 	0.1553	0.7291	0.8078	0.444
Mof_H 	H 	0.1004	0.7031	0.8253	-0.185
Mof_O 	O 	0.0888	0.8013	0.9258	-0.282
Mof_N 	N 	0.605	0.3269	0.4319	-0.147
Mof_C 	C 	0.6196	0.2729	0.378	-0.157
Mof_H 	H 	0.5828	0.2211	0.3667	0.148
Mof_C 	C 	0.6553	0.2291	0.3078	0.457
Mof_H 	H 	0.6004	0.2031	0.3253	-0.192
Mof_O 	O 	0.5888	0.3013	0.4258	-0.322
Mof_N 	N 	0.895	0.1731	0.9319	-0.099
Mof_C 	C 	0.8804	0.2271	0.878	-0.141
Mof_H 	H 	0.9172	0.2789	0.8667	0.162
Mof_C 	C 	0.8447	0.2709	0.8078	0.444
Mof_H 	H 	0.8996	0.2969	0.8253	-0.175
Mof_O 	O 	0.9112	0.1987	0.9258	-0.307
Mof_N 	N 	0.395	0.6731	0.4319	-0.14
Mof_C 	C 	0.3804	0.7271	0.378	-0.155
Mof_H 	H 	0.4172	0.7789	0.3667	0.152
Mof_C 	C 	0.3447	0.7709	0.3078	0.459
Mof_H 	H 	0.3996	0.7969	0.3253	-0.188
Mof_O 	O 	0.4112	0.6987	0.4258	-0.326
Mof_N 	N 	0.1731	0.895	0.0681	-0.13
Mof_C 	C 	0.2271	0.8804	0.122	-0.159
Mof_H 	H 	0.2789	0.9172	0.1333	0.155
Mof_C 	C 	0.2709	0.8447	0.1922	0.461
Mof_H 	H 	0.2969	0.8996	0.1747	-0.188
Mof_O 	O 	0.1987	0.9112	0.0742	-0.341
Mof_N 	N 	0.6731	0.395	0.5681	-0.14
Mof_C 	C 	0.7271	0.3804	0.622	-0.156
Mof_H 	H 	0.7789	0.4172	0.6333	0.152
Mof_C 	C 	0.7709	0.3447	0.6922	0.453
Mof_H 	H 	0.7969	0.3996	0.6747	-0.183
Mof_O 	O 	0.6987	0.4112	0.5742	-0.325
Mof_N 	N 	0.8269	0.105	0.0681	-0.169
Mof_C 	C 	0.7729	0.1196	0.122	-0.173
Mof_H 	H 	0.7211	0.0828	0.1333	0.141
Mof_C 	C 	0.7291	0.1553	0.1922	0.462
Mof_H 	H 	0.7031	0.1004	0.1747	-0.198
Mof_O 	O 	0.8013	0.0888	0.0742	-0.314
Mof_N 	N 	0.3269	0.605	0.5681	-0.146
Mof_C 	C 	0.2729	0.6196	0.622	-0.158
Mof_H 	H 	0.2211	0.5828	0.6333	0.148
Mof_C 	C 	0.2291	0.6553	0.6922	0.451
Mof_H 	H 	0.2031	0.6004	0.6747	-0.187
Mof_O 	O 	0.3013	0.5888	0.5742	-0.32
Mof_N 	N 	0.895	0.8269	0.0681	-0.14
Mof_C 	C 	0.8804	0.7729	0.122	-0.152
Mof_H 	H 	0.9172	0.7211	0.1333	0.151
Mof_C 	C 	0.8447	0.7291	0.1922	0.459
Mof_H 	H 	0.8996	0.7031	0.1747	-0.184
Mof_O 	O 	0.9112	0.8013	0.0742	-0.32
Mof_N 	N 	0.395	0.3269	0.5681	-0.145
Mof_C 	C 	0.3804	0.2729	0.622	-0.161
Mof_H 	H 	0.4172	0.2211	0.6333	0.148
Mof_C 	C 	0.3447	0.2291	0.6922	0.45
Mof_H 	H 	0.3996	0.2031	0.6747	-0.187
Mof_O 	O 	0.4112	0.3013	0.5742	-0.323
Mof_N 	N 	0.105	0.1731	0.0681	-0.159
Mof_C 	C 	0.1196	0.2271	0.122	-0.179
Mof_H 	H 	0.0828	0.2789	0.1333	0.144
Mof_C 	C 	0.1553	0.2709	0.1922	0.464
Mof_H 	H 	0.1004	0.2969	0.1747	-0.201
Mof_O 	O 	0.0888	0.1987	0.0742	-0.334
Mof_N 	N 	0.605	0.6731	0.5681	-0.141
Mof_C 	C 	0.6196	0.7271	0.622	-0.153
Mof_H 	H 	0.5828	0.7789	0.6333	0.152
Mof_C 	C 	0.6553	0.7709	0.6922	0.453
Mof_H 	H 	0.6004	0.7969	0.6747	-0.182
Mof_O 	O 	0.5888	0.6987	0.5742	-0.322
Mof_Cu	Cu	0.17997	0	-0	0.889
Mof_Cu	Cu	0.67997	0.5	0.5	0.947
Mof_Cu	Cu	0.82003	0	-0	0.893
Mof_Cu	Cu	0.32003	0.5	0.5	0.944
Mof_Cu	Cu	-0	0.17997	-0	0.889
Mof_Cu	Cu	0.5	0.67997	0.5	0.947
Mof_Cu	Cu	-0	0.82003	-0	0.893
Mof_Cu	Cu	0.5	0.32003	0.5	0.944
Mof_Cl	Cl	-0	0	-0	-0.785
Mof_Cl	Cl	0.5	0.5	0.5	-0.659
Mof_C 	C 	0.1966	0.1966	0.1593	-0.585
Mof_C 	C 	0.2336	0.2336	0.2186	0.323
Mof_C 	C 	0.158	0.158	0.0978	0.834
Mof_C 	C 	0.6966	0.6966	0.6593	-0.563
Mof_C 	C 	0.7336	0.7336	0.7186	0.327
Mof_C 	C 	0.658	0.658	0.5978	0.801
Mof_C 	C 	0.8034	0.8034	0.1593	-0.574
Mof_C 	C 	0.7664	0.7664	0.2186	0.332
Mof_C 	C 	0.842	0.842	0.0978	0.799
Mof_C 	C 	0.3034	0.3034	0.6593	-0.565
Mof_C 	C 	0.2664	0.2664	0.7186	0.321
Mof_C 	C 	0.342	0.342	0.5978	0.808
Mof_C 	C 	0.8034	0.1966	0.1593	-0.58
Mof_C 	C 	0.7664	0.2336	0.2186	0.327
Mof_C 	C 	0.842	0.158	0.0978	0.817
Mof_C 	C 	0.3034	0.6966	0.6593	-0.564
Mof_C 	C 	0.2664	0.7336	0.7186	0.324
Mof_C 	C 	0.342	0.658	0.5978	0.805
Mof_C 	C 	0.1966	0.8034	0.1593	-0.58
Mof_C 	C 	0.2336	0.7664	0.2186	0.327
Mof_C 	C 	0.158	0.842	0.0978	0.817
Mof_C 	C 	0.6966	0.3034	0.6593	-0.564
Mof_C 	C 	0.7336	0.2664	0.7186	0.324
Mof_C 	C 	0.658	0.342	0.5978	0.805
Mof_C 	C 	0.8034	0.1966	0.8407	-0.546
Mof_C 	C 	0.7664	0.2336	0.7814	0.328
Mof_C 	C 	0.842	0.158	0.9022	0.772
Mof_C 	C 	0.3034	0.6966	0.3407	-0.577
Mof_C 	C 	0.2664	0.7336	0.2814	0.334
Mof_C 	C 	0.342	0.658	0.4022	0.808
Mof_C 	C 	0.1966	0.8034	0.8407	-0.546
Mof_C 	C 	0.2336	0.7664	0.7814	0.328
Mof_C 	C 	0.158	0.842	0.9022	0.772
Mof_C 	C 	0.6966	0.3034	0.3407	-0.577
Mof_C 	C 	0.7336	0.2664	0.2814	0.334
Mof_C 	C 	0.658	0.342	0.4022	0.808
Mof_C 	C 	0.1966	0.1966	0.8407	-0.55
Mof_C 	C 	0.2336	0.2336	0.7814	0.323
Mof_C 	C 	0.158	0.158	0.9022	0.787
Mof_C 	C 	0.6966	0.6966	0.3407	-0.575
Mof_C 	C 	0.7336	0.7336	0.2814	0.337
Mof_C 	C 	0.658	0.658	0.4022	0.805
Mof_C 	C 	0.8034	0.8034	0.8407	-0.541
Mof_C 	C 	0.7664	0.7664	0.7814	0.333
Mof_C 	C 	0.842	0.842	0.9022	0.756
Mof_C 	C 	0.3034	0.3034	0.3407	-0.579
Mof_C 	C 	0.2664	0.2664	0.2814	0.332
Mof_C 	C 	0.342	0.342	0.4022	0.812
Mof_C 	C 	0.3074	0.1926	0.25	-0.84
Mof_H 	H 	0.3537	0.1463	0.25	0.277
Mof_C 	C 	0.6926	0.8074	0.25	-0.836
Mof_H 	H 	0.6463	0.8537	0.25	0.291
Mof_C 	C 	0.8074	0.3074	0.25	-0.838
Mof_H 	H 	0.8537	0.3537	0.25	0.29
Mof_C 	C 	0.1926	0.6926	0.25	-0.839
Mof_H 	H 	0.1463	0.6463	0.25	0.278
Mof_C 	C 	0.6926	0.1926	0.75	-0.815
Mof_H 	H 	0.6463	0.1463	0.75	0.278
Mof_C 	C 	0.3074	0.8074	0.75	-0.814
Mof_H 	H 	0.3537	0.8537	0.75	0.289
Mof_C 	C 	0.1926	0.3074	0.75	-0.816
Mof_H 	H 	0.1463	0.3537	0.75	0.277
Mof_C 	C 	0.8074	0.6926	0.75	-0.813
Mof_H 	H 	0.8537	0.6463	0.75	0.29
Mof_C 	C 	0.6926	0.8074	0.75	-0.813
Mof_H 	H 	0.6463	0.8537	0.75	0.29
Mof_C 	C 	0.1926	0.3074	0.25	-0.84
Mof_H 	H 	0.1463	0.3537	0.25	0.277
Mof_C 	C 	0.3074	0.1926	0.75	-0.816
Mof_H 	H 	0.3537	0.1463	0.75	0.277
Mof_C 	C 	0.1926	0.6926	0.75	-0.815
Mof_H 	H 	0.1463	0.6463	0.75	0.278
Mof_C 	C 	0.8074	0.3074	0.75	-0.814
Mof_H 	H 	0.8537	0.3537	0.75	0.289
Mof_C 	C 	0.3074	0.8074	0.25	-0.838
Mof_H 	H 	0.3537	0.8537	0.25	0.29
Mof_C 	C 	0.6926	0.1926	0.25	-0.839
Mof_H 	H 	0.6463	0.1463	0.25	0.278
Mof_C 	C 	0.8074	0.6926	0.25	-0.836
Mof_H 	H 	0.8537	0.6463	0.25	0.291
_end
