# CIF file generated by openbabel 2.4.1, see http://openbabel.sf.net
data_I
_chemical_name_common 'image0'
_cell_length_a 20.888
_cell_length_b 22.219
_cell_length_c 7.8466
_cell_angle_alpha 90
_cell_angle_beta 90
_cell_angle_gamma 90
_space_group_name_H-M_alt 'P 1'
_space_group_name_Hall 'P 1'
loop_
    _symmetry_equiv_pos_as_xyz
    x,y,z
loop_
    _atom_site_label
    _atom_site_type_symbol
    _atom_site_fract_x
    _atom_site_fract_y
    _atom_site_fract_z
    _atom_site_occupancy
    S1      S    0.35310   0.65503   0.61109   1.000
    C1      C    0.40430   0.60640   0.73490   1.000
    C2      C    0.33490   0.60937   0.42270   1.000
    H1      H    0.38170   0.56880   0.76040   1.000
    H2      H    0.41600   0.62650   0.84160   1.000
    H3      H    0.44320   0.59740   0.66980   1.000
    H4      H    0.30940   0.63370   0.34190   1.000
    H5      H    0.37550   0.59840   0.36540   1.000
    C3      C    0.29878   0.55307   0.46460   1.000
    C4      C    0.23220   0.55286   0.46700   1.000
    H6      H    0.20940   0.58910   0.44600   1.000
    F1      F    0.35050   0.69170   0.03860   1.000
    F2      F    0.29050   0.70010   0.05780   1.000
    F3      F    0.35700   0.78040   0.19100   1.000
    F4      F    0.31700   0.68920   0.10000   1.000
    F5      F    0.27010   0.77730   0.00900   1.000
    S2      S    0.85310   0.15503   0.11109   1.000
    C5      C    0.90430   0.10640   0.23490   1.000
    C6      C    0.83490   0.10937   0.92270   1.000
    H7      H    0.88170   0.06880   0.26040   1.000
    H8      H    0.91600   0.12650   0.34160   1.000
    H9      H    0.94320   0.09740   0.16980   1.000
    H10     H    0.80940   0.13370   0.84190   1.000
    H11     H    0.87550   0.09840   0.86540   1.000
    C7      C    0.79878   0.05307   0.96460   1.000
    C8      C    0.73220   0.05286   0.96700   1.000
    H12     H    0.70940   0.08910   0.94600   1.000
    F6      F    0.85050   0.19170   0.53860   1.000
    F7      F    0.79050   0.20010   0.55780   1.000
    F8      F    0.85700   0.28040   0.69100   1.000
    F9      F    0.81700   0.18920   0.60000   1.000
    F10     F    0.77010   0.27730   0.50900   1.000
    S3      S    0.64690   0.84497   0.61109   1.000
    C9      C    0.59570   0.89360   0.73490   1.000
    C10     C    0.66510   0.89063   0.42270   1.000
    H13     H    0.61830   0.93120   0.76040   1.000
    H14     H    0.58400   0.87350   0.84160   1.000
    H15     H    0.55680   0.90260   0.66980   1.000
    H16     H    0.69060   0.86630   0.34190   1.000
    H17     H    0.62450   0.90160   0.36540   1.000
    C11     C    0.70122   0.94693   0.46460   1.000
    C12     C    0.76780   0.94714   0.46700   1.000
    H18     H    0.79060   0.91090   0.44600   1.000
    F11     F    0.64950   0.80830   0.03860   1.000
    F12     F    0.70950   0.79990   0.05780   1.000
    F13     F    0.64300   0.71960   0.19100   1.000
    F14     F    0.68300   0.81080   0.10000   1.000
    F15     F    0.72990   0.72270   0.00900   1.000
    S4      S    0.14690   0.34497   0.11109   1.000
    C13     C    0.09570   0.39360   0.23490   1.000
    C14     C    0.16510   0.39063   0.92270   1.000
    H19     H    0.11830   0.43120   0.26040   1.000
    H20     H    0.08400   0.37350   0.34160   1.000
    H21     H    0.05680   0.40260   0.16980   1.000
    H22     H    0.19060   0.36630   0.84190   1.000
    H23     H    0.12450   0.40160   0.86540   1.000
    C15     C    0.20122   0.44693   0.96460   1.000
    C16     C    0.26780   0.44714   0.96700   1.000
    H24     H    0.29060   0.41090   0.94600   1.000
    F16     F    0.14950   0.30830   0.53860   1.000
    F17     F    0.20950   0.29990   0.55780   1.000
    F18     F    0.14300   0.21960   0.69100   1.000
    F19     F    0.18300   0.31080   0.60000   1.000
    F20     F    0.22990   0.22270   0.50900   1.000
    S5      S    0.64690   0.15503   0.38891   1.000
    C17     C    0.59570   0.10640   0.26510   1.000
    C18     C    0.66510   0.10937   0.57730   1.000
    H25     H    0.61830   0.06880   0.23960   1.000
    H26     H    0.58400   0.12650   0.15840   1.000
    H27     H    0.55680   0.09740   0.33020   1.000
    H28     H    0.69060   0.13370   0.65810   1.000
    H29     H    0.62450   0.09840   0.63460   1.000
    C19     C    0.70122   0.05307   0.53540   1.000
    C20     C    0.76780   0.05286   0.53300   1.000
    H30     H    0.79060   0.08910   0.55400   1.000
    F21     F    0.64950   0.19170   0.96140   1.000
    F22     F    0.70950   0.20010   0.94220   1.000
    F23     F    0.64300   0.28040   0.80900   1.000
    F24     F    0.68300   0.18920   0.90000   1.000
    F25     F    0.72990   0.27730   0.99100   1.000
    S6      S    0.14690   0.65503   0.88891   1.000
    C21     C    0.09570   0.60640   0.76510   1.000
    C22     C    0.16510   0.60937   0.07730   1.000
    H31     H    0.11830   0.56880   0.73960   1.000
    H32     H    0.08400   0.62650   0.65840   1.000
    H33     H    0.05680   0.59740   0.83020   1.000
    H34     H    0.19060   0.63370   0.15810   1.000
    H35     H    0.12450   0.59840   0.13460   1.000
    C23     C    0.20122   0.55307   0.03540   1.000
    C24     C    0.26780   0.55286   0.03300   1.000
    H36     H    0.29060   0.58910   0.05400   1.000
    F26     F    0.14950   0.69170   0.46140   1.000
    F27     F    0.20950   0.70010   0.44220   1.000
    F28     F    0.14300   0.78040   0.30900   1.000
    F29     F    0.18300   0.68920   0.40000   1.000
    F30     F    0.22990   0.77730   0.49100   1.000
    S7      S    0.35310   0.34497   0.38891   1.000
    C25     C    0.40430   0.39360   0.26510   1.000
    C26     C    0.33490   0.39063   0.57730   1.000
    H37     H    0.38170   0.43120   0.23960   1.000
    H38     H    0.41600   0.37350   0.15840   1.000
    H39     H    0.44320   0.40260   0.33020   1.000
    H40     H    0.30940   0.36630   0.65810   1.000
    H41     H    0.37550   0.40160   0.63460   1.000
    C27     C    0.29878   0.44693   0.53540   1.000
    C28     C    0.23220   0.44714   0.53300   1.000
    H42     H    0.20940   0.41090   0.55400   1.000
    F31     F    0.35050   0.30830   0.96140   1.000
    F32     F    0.29050   0.29990   0.94220   1.000
    F33     F    0.35700   0.21960   0.80900   1.000
    F34     F    0.31700   0.31080   0.90000   1.000
    F35     F    0.27010   0.22270   0.99100   1.000
    S8      S    0.85310   0.84497   0.88891   1.000
    C29     C    0.90430   0.89360   0.76510   1.000
    C30     C    0.83490   0.89063   0.07730   1.000
    H43     H    0.88170   0.93120   0.73960   1.000
    H44     H    0.91600   0.87350   0.65840   1.000
    H45     H    0.94320   0.90260   0.83020   1.000
    H46     H    0.80940   0.86630   0.15810   1.000
    H47     H    0.87550   0.90160   0.13460   1.000
    C31     C    0.79878   0.94693   0.03540   1.000
    C32     C    0.73220   0.94714   0.03300   1.000
    H48     H    0.70940   0.91090   0.05400   1.000
    F36     F    0.85050   0.80830   0.46140   1.000
    F37     F    0.79050   0.79990   0.44220   1.000
    F38     F    0.85700   0.71960   0.30900   1.000
    F39     F    0.81700   0.81080   0.40000   1.000
    F40     F    0.77010   0.72270   0.49100   1.000
    S9      S    0.64690   0.34497   0.38891   1.000
    C33     C    0.59570   0.39360   0.26510   1.000
    C34     C    0.66510   0.39063   0.57730   1.000
    H49     H    0.61830   0.43120   0.23960   1.000
    H50     H    0.58400   0.37350   0.15840   1.000
    H51     H    0.55680   0.40260   0.33020   1.000
    H52     H    0.69060   0.36630   0.65810   1.000
    H53     H    0.62450   0.40160   0.63460   1.000
    C35     C    0.70122   0.44693   0.53540   1.000
    C36     C    0.76780   0.44714   0.53300   1.000
    H54     H    0.79060   0.41090   0.55400   1.000
    F41     F    0.64950   0.30830   0.96140   1.000
    F42     F    0.70950   0.29990   0.94220   1.000
    F43     F    0.64300   0.21960   0.80900   1.000
    F44     F    0.68300   0.31080   0.90000   1.000
    F45     F    0.72990   0.22270   0.99100   1.000
    S10     S    0.14690   0.84497   0.88891   1.000
    C37     C    0.09570   0.89360   0.76510   1.000
    C38     C    0.16510   0.89063   0.07730   1.000
    H55     H    0.11830   0.93120   0.73960   1.000
    H56     H    0.08400   0.87350   0.65840   1.000
    H57     H    0.05680   0.90260   0.83020   1.000
    H58     H    0.19060   0.86630   0.15810   1.000
    H59     H    0.12450   0.90160   0.13460   1.000
    C39     C    0.20122   0.94693   0.03540   1.000
    C40     C    0.26780   0.94714   0.03300   1.000
    H60     H    0.29060   0.91090   0.05400   1.000
    F46     F    0.14950   0.80830   0.46140   1.000
    F47     F    0.20950   0.79990   0.44220   1.000
    F48     F    0.14300   0.71960   0.30900   1.000
    F49     F    0.18300   0.81080   0.40000   1.000
    F50     F    0.22990   0.72270   0.49100   1.000
    S11     S    0.35310   0.15503   0.38891   1.000
    C41     C    0.40430   0.10640   0.26510   1.000
    C42     C    0.33490   0.10937   0.57730   1.000
    H61     H    0.38170   0.06880   0.23960   1.000
    H62     H    0.41600   0.12650   0.15840   1.000
    H63     H    0.44320   0.09740   0.33020   1.000
    H64     H    0.30940   0.13370   0.65810   1.000
    H65     H    0.37550   0.09840   0.63460   1.000
    C43     C    0.29878   0.05307   0.53540   1.000
    C44     C    0.23220   0.05286   0.53300   1.000
    H66     H    0.20940   0.08910   0.55400   1.000
    F51     F    0.35050   0.19170   0.96140   1.000
    F52     F    0.29050   0.20010   0.94220   1.000
    F53     F    0.35700   0.28040   0.80900   1.000
    F54     F    0.31700   0.18920   0.90000   1.000
    F55     F    0.27010   0.27730   0.99100   1.000
    S12     S    0.85310   0.65503   0.88891   1.000
    C45     C    0.90430   0.60640   0.76510   1.000
    C46     C    0.83490   0.60937   0.07730   1.000
    H67     H    0.88170   0.56880   0.73960   1.000
    H68     H    0.91600   0.62650   0.65840   1.000
    H69     H    0.94320   0.59740   0.83020   1.000
    H70     H    0.80940   0.63370   0.15810   1.000
    H71     H    0.87550   0.59840   0.13460   1.000
    C47     C    0.79878   0.55307   0.03540   1.000
    C48     C    0.73220   0.55286   0.03300   1.000
    H72     H    0.70940   0.58910   0.05400   1.000
    F56     F    0.85050   0.69170   0.46140   1.000
    F57     F    0.79050   0.70010   0.44220   1.000
    F58     F    0.85700   0.78040   0.30900   1.000
    F59     F    0.81700   0.68920   0.40000   1.000
    F60     F    0.77010   0.77730   0.49100   1.000
    S13     S    0.35310   0.84497   0.61109   1.000
    C49     C    0.40430   0.89360   0.73490   1.000
    C50     C    0.33490   0.89063   0.42270   1.000
    H73     H    0.38170   0.93120   0.76040   1.000
    H74     H    0.41600   0.87350   0.84160   1.000
    H75     H    0.44320   0.90260   0.66980   1.000
    H76     H    0.30940   0.86630   0.34190   1.000
    H77     H    0.37550   0.90160   0.36540   1.000
    C51     C    0.29878   0.94693   0.46460   1.000
    C52     C    0.23220   0.94714   0.46700   1.000
    H78     H    0.20940   0.91090   0.44600   1.000
    F61     F    0.35050   0.80830   0.03860   1.000
    F62     F    0.29050   0.79990   0.05780   1.000
    F63     F    0.35700   0.71960   0.19100   1.000
    F64     F    0.31700   0.81080   0.10000   1.000
    F65     F    0.27010   0.72270   0.00900   1.000
    S14     S    0.85310   0.34497   0.11109   1.000
    C53     C    0.90430   0.39360   0.23490   1.000
    C54     C    0.83490   0.39063   0.92270   1.000
    H79     H    0.88170   0.43120   0.26040   1.000
    H80     H    0.91600   0.37350   0.34160   1.000
    H81     H    0.94320   0.40260   0.16980   1.000
    H82     H    0.80940   0.36630   0.84190   1.000
    H83     H    0.87550   0.40160   0.86540   1.000
    C55     C    0.79878   0.44693   0.96460   1.000
    C56     C    0.73220   0.44714   0.96700   1.000
    H84     H    0.70940   0.41090   0.94600   1.000
    F66     F    0.85050   0.30830   0.53860   1.000
    F67     F    0.79050   0.29990   0.55780   1.000
    F68     F    0.85700   0.21960   0.69100   1.000
    F69     F    0.81700   0.31080   0.60000   1.000
    F70     F    0.77010   0.22270   0.50900   1.000
    S15     S    0.64690   0.65503   0.61109   1.000
    C57     C    0.59570   0.60640   0.73490   1.000
    C58     C    0.66510   0.60937   0.42270   1.000
    H85     H    0.61830   0.56880   0.76040   1.000
    H86     H    0.58400   0.62650   0.84160   1.000
    H87     H    0.55680   0.59740   0.66980   1.000
    H88     H    0.69060   0.63370   0.34190   1.000
    H89     H    0.62450   0.59840   0.36540   1.000
    C59     C    0.70122   0.55307   0.46460   1.000
    C60     C    0.76780   0.55286   0.46700   1.000
    H90     H    0.79060   0.58910   0.44600   1.000
    F71     F    0.64950   0.69170   0.03860   1.000
    F72     F    0.70950   0.70010   0.05780   1.000
    F73     F    0.64300   0.78040   0.19100   1.000
    F74     F    0.68300   0.68920   0.10000   1.000
    F75     F    0.72990   0.77730   0.00900   1.000
    S16     S    0.14690   0.15503   0.11109   1.000
    C61     C    0.09570   0.10640   0.23490   1.000
    C62     C    0.16510   0.10937   0.92270   1.000
    H91     H    0.11830   0.06880   0.26040   1.000
    H92     H    0.08400   0.12650   0.34160   1.000
    H93     H    0.05680   0.09740   0.16980   1.000
    H94     H    0.19060   0.13370   0.84190   1.000
    H95     H    0.12450   0.09840   0.86540   1.000
    C63     C    0.20122   0.05307   0.96460   1.000
    C64     C    0.26780   0.05286   0.96700   1.000
    H96     H    0.29060   0.08910   0.94600   1.000
    F76     F    0.14950   0.19170   0.53860   1.000
    F77     F    0.20950   0.20010   0.55780   1.000
    F78     F    0.14300   0.28040   0.69100   1.000
    F79     F    0.18300   0.18920   0.60000   1.000
    F80     F    0.22990   0.27730   0.50900   1.000
    Ag1     Ag   0.25000   0.66253   0.75000   1.000
    Ag2     Ag   0.75000   0.83747   0.75000   1.000
    Ag3     Ag   0.75000   0.16253   0.25000   1.000
    Ag4     Ag   0.25000   0.33747   0.25000   1.000
    Ag5     Ag   0.75000   0.33747   0.25000   1.000
    Ag6     Ag   0.25000   0.16253   0.25000   1.000
    Ag7     Ag   0.25000   0.83747   0.75000   1.000
    Ag8     Ag   0.75000   0.66253   0.75000   1.000
    Ag9     Ag   0.41336   0.75000   0.53243   1.000
    B1      B    0.33000   0.75000   0.07270   1.000
    F81     F    0.26660   0.75000   0.01830   1.000
    F82     F    0.32680   0.75000   0.25070   1.000
    Ag10    Ag   0.39760   0.75000   0.46880   1.000
    B2      B    0.33030   0.75000   0.06500   1.000
    F83     F    0.37280   0.75000   0.92870   1.000
    F84     F    0.36350   0.75000   0.21870   1.000
    B3      B    0.32870   0.75000   0.05300   1.000
    F85     F    0.37020   0.75000   0.91100   1.000
    Ag11    Ag   0.91336   0.25000   0.03243   1.000
    B4      B    0.83000   0.25000   0.57270   1.000
    F86     F    0.76660   0.25000   0.51830   1.000
    F87     F    0.82680   0.25000   0.75070   1.000
    Ag12    Ag   0.89760   0.25000   0.96880   1.000
    B5      B    0.83030   0.25000   0.56500   1.000
    F88     F    0.87280   0.25000   0.42870   1.000
    F89     F    0.86350   0.25000   0.71870   1.000
    B6      B    0.82870   0.25000   0.55300   1.000
    F90     F    0.87020   0.25000   0.41100   1.000
    Ag13    Ag   0.58664   0.75000   0.53243   1.000
    B7      B    0.67000   0.75000   0.07270   1.000
    F91     F    0.73340   0.75000   0.01830   1.000
    F92     F    0.67320   0.75000   0.25070   1.000
    Ag14    Ag   0.60240   0.75000   0.46880   1.000
    B8      B    0.66970   0.75000   0.06500   1.000
    F93     F    0.62720   0.75000   0.92870   1.000
    F94     F    0.63650   0.75000   0.21870   1.000
    B9      B    0.67130   0.75000   0.05300   1.000
    F95     F    0.62980   0.75000   0.91100   1.000
    Ag15    Ag   0.08664   0.25000   0.03243   1.000
    B10     B    0.17000   0.25000   0.57270   1.000
    F96     F    0.23340   0.25000   0.51830   1.000
    F97     F    0.17320   0.25000   0.75070   1.000
    Ag16    Ag   0.10240   0.25000   0.96880   1.000
    B11     B    0.16970   0.25000   0.56500   1.000
    F98     F    0.12720   0.25000   0.42870   1.000
    F99     F    0.13650   0.25000   0.71870   1.000
    B12     B    0.17130   0.25000   0.55300   1.000
    F100    F    0.12980   0.25000   0.41100   1.000
    Ag17    Ag   0.58664   0.25000   0.46757   1.000
    B13     B    0.67000   0.25000   0.92730   1.000
    F101    F    0.73340   0.25000   0.98170   1.000
    F102    F    0.67320   0.25000   0.74930   1.000
    Ag18    Ag   0.60240   0.25000   0.53120   1.000
    B14     B    0.66970   0.25000   0.93500   1.000
    F103    F    0.62720   0.25000   0.07130   1.000
    F104    F    0.63650   0.25000   0.78130   1.000
    B15     B    0.67130   0.25000   0.94700   1.000
    F105    F    0.62980   0.25000   0.08900   1.000
    Ag19    Ag   0.08664   0.75000   0.96757   1.000
    B16     B    0.17000   0.75000   0.42730   1.000
    F106    F    0.23340   0.75000   0.48170   1.000
    F107    F    0.17320   0.75000   0.24930   1.000
    Ag20    Ag   0.10240   0.75000   0.03120   1.000
    B17     B    0.16970   0.75000   0.43500   1.000
    F108    F    0.12720   0.75000   0.57130   1.000
    F109    F    0.13650   0.75000   0.28130   1.000
    B18     B    0.17130   0.75000   0.44700   1.000
    F110    F    0.12980   0.75000   0.58900   1.000
    Ag21    Ag   0.41336   0.25000   0.46757   1.000
    B19     B    0.33000   0.25000   0.92730   1.000
    F111    F    0.26660   0.25000   0.98170   1.000
    F112    F    0.32680   0.25000   0.74930   1.000
    Ag22    Ag   0.39760   0.25000   0.53120   1.000
    B20     B    0.33030   0.25000   0.93500   1.000
    F113    F    0.37280   0.25000   0.07130   1.000
    F114    F    0.36350   0.25000   0.78130   1.000
    B21     B    0.32870   0.25000   0.94700   1.000
    F115    F    0.37020   0.25000   0.08900   1.000
    Ag23    Ag   0.91336   0.75000   0.96757   1.000
    B22     B    0.83000   0.75000   0.42730   1.000
    F116    F    0.76660   0.75000   0.48170   1.000
    F117    F    0.82680   0.75000   0.24930   1.000
    Ag24    Ag   0.89760   0.75000   0.03120   1.000
    B23     B    0.83030   0.75000   0.43500   1.000
    F118    F    0.87280   0.75000   0.57130   1.000
    F119    F    0.86350   0.75000   0.28130   1.000
    B24     B    0.82870   0.75000   0.44700   1.000
    F120    F    0.87020   0.75000   0.58900   1.000
    O1      O    0.50000   0.76270   0.34810   1.000
    O2      O    0.00000   0.26270   0.84810   1.000
    O3      O    0.50000   0.73730   0.34810   1.000
    O4      O    0.00000   0.23730   0.84810   1.000
    O5      O    0.50000   0.26270   0.65190   1.000
    O6      O    0.00000   0.76270   0.15190   1.000
    O7      O    0.50000   0.23730   0.65190   1.000
    O8      O    0.00000   0.73730   0.15190   1.000
    C65     C    0.33160   0.50000   0.50000   1.000
    C66     C    0.19870   0.50000   0.50000   1.000
    H97     H    0.37710   0.50000   0.50000   1.000
    H98     H    0.15320   0.50000   0.50000   1.000
    C67     C    0.83160   0.00000   0.00000   1.000
    C68     C    0.69870   0.00000   0.00000   1.000
    H99     H    0.87710   0.00000   0.00000   1.000
    H100    H    0.65320   0.00000   0.00000   1.000
    C69     C    0.66840   0.00000   0.50000   1.000
    C70     C    0.80130   0.00000   0.50000   1.000
    H101    H    0.62290   0.00000   0.50000   1.000
    H102    H    0.84680   0.00000   0.50000   1.000
    C71     C    0.16840   0.50000   0.00000   1.000
    C72     C    0.30130   0.50000   0.00000   1.000
    H103    H    0.12290   0.50000   0.00000   1.000
    H104    H    0.34680   0.50000   0.00000   1.000
    C73     C    0.66840   0.50000   0.50000   1.000
    C74     C    0.80130   0.50000   0.50000   1.000
    H105    H    0.62290   0.50000   0.50000   1.000
    H106    H    0.84680   0.50000   0.50000   1.000
    C75     C    0.16840   0.00000   0.00000   1.000
    C76     C    0.30130   0.00000   0.00000   1.000
    H107    H    0.12290   0.00000   0.00000   1.000
    H108    H    0.34680   0.00000   0.00000   1.000
    C77     C    0.33160   0.00000   0.50000   1.000
    C78     C    0.19870   0.00000   0.50000   1.000
    H109    H    0.37710   0.00000   0.50000   1.000
    H110    H    0.15320   0.00000   0.50000   1.000
    C79     C    0.83160   0.50000   0.00000   1.000
    C80     C    0.69870   0.50000   0.00000   1.000
    H111    H    0.87710   0.50000   0.00000   1.000
    H112    H    0.65320   0.50000   0.00000   1.000
