# CIF file generated by openbabel 2.4.1, see http://openbabel.sf.net
data_I
_chemical_name_common 'image0'
_cell_length_a 14.8303
_cell_length_b 17.913
_cell_length_c 29.8943
_cell_angle_alpha 96.803
_cell_angle_beta 93.488
_cell_angle_gamma 110.229
_space_group_name_H-M_alt 'P 1'
_space_group_name_Hall 'P 1'
loop_
    _symmetry_equiv_pos_as_xyz
    x,y,z
loop_
    _atom_site_label
    _atom_site_type_symbol
    _atom_site_fract_x
    _atom_site_fract_y
    _atom_site_fract_z
    _atom_site_occupancy
    Zn1     Zn   0.05302   0.34626   0.90654   1.000
    Zn2     Zn   0.72095   0.75335   0.56224   1.000
    Zn3     Zn   0.78251   0.34862   0.39954   1.000
    Zn4     Zn   0.46020   0.17386   0.21617   1.000
    N1      N    0.94380   0.26810   0.85870   1.000
    C1      C    0.87050   0.29120   0.84520   1.000
    H1      H    0.87070   0.34240   0.85800   1.000
    C2      C    0.79570   0.24330   0.81380   1.000
    H2      H    0.74380   0.26040   0.80580   1.000
    C3      C    0.79640   0.16940   0.79370   1.000
    C4      C    0.87160   0.14610   0.80720   1.000
    H3      H    0.87450   0.09610   0.79430   1.000
    C5      C    0.94350   0.19740   0.84030   1.000
    H4      H    0.99470   0.18060   0.85010   1.000
    N2      N    0.69590   0.83360   0.61090   1.000
    C6      C    0.75720   0.86830   0.64870   1.000
    H5      H    0.81070   0.85190   0.65470   1.000
    C7      C    0.74430   0.92740   0.67910   1.000
    H6      H    0.78980   0.95220   0.70510   1.000
    C8      C    0.66640   0.94990   0.67190   1.000
    C9      C    0.60340   0.91360   0.63300   1.000
    H7      H    0.54920   0.92880   0.62660   1.000
    C10     C    0.61920   0.85570   0.60360   1.000
    H8      H    0.57460   0.83060   0.57730   1.000
    N3      N    0.29580   0.12360   0.73840   1.000
    C11     C    0.37340   0.16540   0.76690   1.000
    H9      H    0.36920   0.20430   0.79040   1.000
    C12     C    0.46090   0.15420   0.76340   1.000
    H10     H    0.51490   0.18420   0.78500   1.000
    C13     C    0.47010   0.10120   0.72970   1.000
    C14     C    0.39110   0.05710   0.70040   1.000
    H11     H    0.39370   0.01820   0.67650   1.000
    C15     C    0.30350   0.07160   0.70700   1.000
    H12     H    0.24750   0.04080   0.68680   1.000
    C16     C    0.71630   0.11860   0.75920   1.000
    N4      N    0.72550   0.05480   0.73560   1.000
    C17     C    0.65260   0.01430   0.70300   1.000
    N5      N    0.56970   0.02860   0.69800   1.000
    C18     C    0.56400   0.08790   0.72710   1.000
    N6      N    0.63690   0.13800   0.75730   1.000
    N7      N    0.58820   0.65980   0.55390   1.000
    C19     C    0.52960   0.63370   0.51570   1.000
    H13     H    0.54790   0.65900   0.48970   1.000
    C20     C    0.44120   0.56940   0.51260   1.000
    H14     H    0.39940   0.55190   0.48500   1.000
    C21     C    0.41590   0.53220   0.54980   1.000
    C22     C    0.47430   0.56030   0.59040   1.000
    H15     H    0.45700   0.53670   0.61690   1.000
    C23     C    0.56090   0.62570   0.59050   1.000
    H16     H    0.60200   0.64660   0.61810   1.000
    N8      N    0.90620   0.38110   0.44500   1.000
    C24     C    0.98960   0.44020   0.44090   1.000
    H17     H    0.99020   0.47550   0.41950   1.000
    C25     C    0.07440   0.45080   0.46710   1.000
    H18     H    0.13220   0.49360   0.46410   1.000
    C26     C    0.07430   0.39920   0.49730   1.000
    C27     C    0.98860   0.34040   0.50260   1.000
    H19     H    0.98620   0.30510   0.52420   1.000
    C28     C    0.90560   0.33340   0.47570   1.000
    H20     H    0.84620   0.29300   0.47950   1.000
    N9      N    0.19540   0.21850   0.68650   1.000
    C29     C    0.27250   0.28520   0.68910   1.000
    H21     H    0.31730   0.30100   0.71560   1.000
    C30     C    0.29050   0.33260   0.65500   1.000
    H22     H    0.34750   0.37900   0.65710   1.000
    C31     C    0.22070   0.30900   0.61700   1.000
    C32     C    0.14360   0.23980   0.61450   1.000
    H23     H    0.09740   0.22190   0.58850   1.000
    C33     C    0.13220   0.19570   0.64940   1.000
    H24     H    0.07770   0.14730   0.64720   1.000
    C34     C    0.32210   0.46460   0.54860   1.000
    N10     N    0.24780   0.46240   0.52040   1.000
    C35     C    0.16400   0.40400   0.52550   1.000
    N11     N    0.15290   0.35320   0.55470   1.000
    C36     C    0.23230   0.36120   0.58060   1.000
    N12     N    0.32010   0.41580   0.57860   1.000
    N13     N    0.81850   0.27170   0.35280   1.000
    C37     C    0.75260   0.20730   0.32880   1.000
    H25     H    0.68810   0.19090   0.33640   1.000
    C38     C    0.77510   0.16200   0.29220   1.000
    H26     H    0.72580   0.11710   0.27460   1.000
    C39     C    0.86860   0.18350   0.28220   1.000
    C40     C    0.93590   0.25020   0.30830   1.000
    H27     H    0.00160   0.26650   0.30240   1.000
    C41     C    0.90990   0.29360   0.34270   1.000
    H28     H    0.95760   0.34020   0.35970   1.000
    N14     N    0.64480   0.87610   0.08410   1.000
    C42     C    0.73610   0.87640   0.08730   1.000
    H29     H    0.75170   0.83990   0.06630   1.000
    C43     C    0.80770   0.92770   0.11990   1.000
    H30     H    0.87120   0.92600   0.12150   1.000
    C44     C    0.78530   0.98210   0.15040   1.000
    C45     C    0.69130   0.98130   0.14790   1.000
    H31     H    0.67380   0.01700   0.16870   1.000
    C46     C    0.62380   0.92780   0.11460   1.000
    H32     H    0.55940   0.92730   0.11300   1.000
    N15     N    0.31430   0.15830   0.20940   1.000
    C47     C    0.25020   0.09950   0.18000   1.000
    H33     H    0.27270   0.06580   0.16020   1.000
    C48     C    0.15330   0.08560   0.17730   1.000
    H34     H    0.10980   0.04380   0.15540   1.000
    C49     C    0.11950   0.13250   0.20620   1.000
    C50     C    0.18580   0.19550   0.23710   1.000
    H35     H    0.16520   0.22990   0.25730   1.000
    C51     C    0.28300   0.20550   0.23690   1.000
    H36     H    0.32910   0.24810   0.25740   1.000
    C52     C    0.89640   0.13680   0.24500   1.000
    N16     N    0.99050   0.15950   0.24110   1.000
    C53     C    0.01230   0.11450   0.20840   1.000
    N17     N    0.95170   0.05570   0.17770   1.000
    C54     C    0.85970   0.04320   0.18480   1.000
    N18     N    0.82720   0.07800   0.21850   1.000
    N19     N    0.51340   0.24390   0.16740   1.000
    C55     C    0.58460   0.23270   0.14530   1.000
    H37     H    0.60880   0.19240   0.15250   1.000
    C56     C    0.62360   0.27760   0.11260   1.000
    H38     H    0.67180   0.26690   0.09620   1.000
    C57     C    0.59150   0.33920   0.10370   1.000
    C58     C    0.51930   0.35050   0.12640   1.000
    H39     H    0.49510   0.39130   0.12030   1.000
    C59     C    0.48190   0.30210   0.15810   1.000
    H40     H    0.43180   0.31050   0.17400   1.000
    N20     N    0.96300   0.38220   0.94840   1.000
    C60     C    0.93870   0.44630   0.94440   1.000
    H41     H    0.97300   0.48320   0.92550   1.000
    C61     C    0.86740   0.46180   0.96590   1.000
    H42     H    0.85200   0.50780   0.96150   1.000
    C62     C    0.81800   0.41040   0.99390   1.000
    C63     C    0.84440   0.34410   0.00000   1.000
    H43     H    0.81390   0.30800   0.02000   1.000
    C64     C    0.91610   0.33310   0.97600   1.000
    H44     H    0.93310   0.28750   0.97950   1.000
    N21     N    0.57650   0.70570   0.02610   1.000
    C65     C    0.56180   0.66840   0.06170   1.000
    H45     H    0.53500   0.68910   0.08620   1.000
    C66     C    0.58380   0.59990   0.06490   1.000
    H46     H    0.57550   0.57550   0.09160   1.000
    C67     C    0.61770   0.56860   0.02880   1.000
    C68     C    0.63420   0.60770   0.99310   1.000
    H47     H    0.66130   0.58850   0.96820   1.000
    C69     C    0.61150   0.67620   0.99250   1.000
    H48     H    0.62200   0.70270   0.96660   1.000
    C70     C    0.63410   0.39050   0.06980   1.000
    N22     N    0.70120   0.37360   0.04730   1.000
    C71     C    0.73750   0.42290   0.01750   1.000
    N23     N    0.71300   0.48590   0.00940   1.000
    C72     C    0.64540   0.49690   0.03460   1.000
    N24     N    0.60370   0.45150   0.06500   1.000
    I1      I    0.12500   0.27530   0.94880   1.000
    I2      I    0.13800   0.47330   0.86660   1.000
    I3      I    0.74070   0.81890   0.49047   1.000
    I4      I    0.83810   0.69880   0.60069   1.000
    Zn5     Zn   0.17700   0.15980   0.74301   1.000
    I5      I    0.21227   0.26611   0.81200   1.000
    I6      I    0.02142   0.04238   0.72207   1.000
    I7      I    0.78830   0.46434   0.35861   1.000
    I8      I    0.64090   0.26090   0.43751   1.000
    Zn6     Zn   0.56450   0.82020   0.01910   1.000
    I9      I    0.39590   0.80180   0.03700   1.000
    I10     I    0.65070   0.88470   0.95210   1.000
    I11     I    0.52980   0.26500   0.29434   1.000
    I12     I    0.47800   0.04440   0.19110   1.000
    I13     I    0.12340   0.25430   0.95200   1.000
    I14     I    0.14080   0.45890   0.86950   1.000
    I15     I    0.74240   0.81210   0.49052   1.000
    I16     I    0.84050   0.70290   0.60215   1.000
    Zn7     Zn   0.16870   0.14210   0.73420   1.000
    I17     I    0.18360   0.23000   0.81040   1.000
    I18     I    0.01930   0.01300   0.70890   1.000
    I19     I    0.80800   0.46870   0.35490   1.000
    I20     I    0.64890   0.27530   0.43650   1.000
    Zn8     Zn   0.54190   0.81180   0.02900   1.000
    I21     I    0.38370   0.77880   0.06690   1.000
    I22     I    0.58910   0.87680   0.96131   1.000
    I23     I    0.52890   0.24190   0.29080   1.000
    I24     I    0.47390   0.03050   0.18380   1.000
    Zn9     Zn   0.52740   0.79520   0.04820   1.000
    I25     I    0.37800   0.75120   0.09670   1.000
    I26     I    0.52690   0.85880   0.97890   1.000
    Zn10    Zn   0.94698   0.65374   0.09346   1.000
    Zn11    Zn   0.27905   0.24665   0.43776   1.000
    Zn12    Zn   0.21749   0.65138   0.60046   1.000
    Zn13    Zn   0.53980   0.82614   0.78383   1.000
    N25     N    0.05620   0.73190   0.14130   1.000
    C73     C    0.12950   0.70880   0.15480   1.000
    H49     H    0.12930   0.65760   0.14200   1.000
    C74     C    0.20430   0.75670   0.18620   1.000
    H50     H    0.25620   0.73960   0.19420   1.000
    C75     C    0.20360   0.83060   0.20630   1.000
    C76     C    0.12840   0.85390   0.19280   1.000
    H51     H    0.12550   0.90390   0.20570   1.000
    C77     C    0.05650   0.80260   0.15970   1.000
    H52     H    0.00530   0.81940   0.14990   1.000
    N26     N    0.30410   0.16640   0.38910   1.000
    C78     C    0.24280   0.13170   0.35130   1.000
    H53     H    0.18930   0.14810   0.34530   1.000
    C79     C    0.25570   0.07260   0.32090   1.000
    H54     H    0.21020   0.04780   0.29490   1.000
    C80     C    0.33360   0.05010   0.32810   1.000
    C81     C    0.39660   0.08640   0.36700   1.000
    H55     H    0.45080   0.07120   0.37340   1.000
    C82     C    0.38080   0.14430   0.39640   1.000
    H56     H    0.42540   0.16940   0.42270   1.000
    N27     N    0.70420   0.87640   0.26160   1.000
    C83     C    0.62660   0.83460   0.23310   1.000
    H57     H    0.63080   0.79570   0.20960   1.000
    C84     C    0.53910   0.84580   0.23660   1.000
    H58     H    0.48510   0.81580   0.21500   1.000
    C85     C    0.52990   0.89880   0.27030   1.000
    C86     C    0.60890   0.94290   0.29960   1.000
    H59     H    0.60630   0.98180   0.32350   1.000
    C87     C    0.69650   0.92840   0.29300   1.000
    H60     H    0.75250   0.95920   0.31320   1.000
    C88     C    0.28370   0.88140   0.24080   1.000
    N28     N    0.27450   0.94520   0.26440   1.000
    C89     C    0.34740   0.98570   0.29700   1.000
    N29     N    0.43030   0.97140   0.30200   1.000
    C90     C    0.43600   0.91210   0.27290   1.000
    N30     N    0.36310   0.86200   0.24270   1.000
    N31     N    0.41180   0.34020   0.44610   1.000
    C91     C    0.47040   0.36630   0.48430   1.000
    H61     H    0.45210   0.34100   0.51030   1.000
    C92     C    0.55880   0.43060   0.48740   1.000
    H62     H    0.60060   0.44810   0.51500   1.000
    C93     C    0.58410   0.46780   0.45020   1.000
    C94     C    0.52570   0.43970   0.40960   1.000
    H63     H    0.54300   0.46330   0.38310   1.000
    C95     C    0.43910   0.37430   0.40950   1.000
    H64     H    0.39800   0.35340   0.38190   1.000
    N32     N    0.09380   0.61890   0.55500   1.000
    C96     C    0.01040   0.55980   0.55910   1.000
    H65     H    0.00980   0.52450   0.58050   1.000
    C97     C    0.92560   0.54920   0.53290   1.000
    H66     H    0.86780   0.50640   0.53590   1.000
    C98     C    0.92570   0.60080   0.50270   1.000
    C99     C    0.01140   0.65960   0.49740   1.000
    H67     H    0.01380   0.69490   0.47580   1.000
    C100    C    0.09440   0.66660   0.52430   1.000
    H68     H    0.15380   0.70700   0.52050   1.000
    N33     N    0.80460   0.78150   0.31350   1.000
    C101    C    0.72750   0.71480   0.31090   1.000
    H69     H    0.68270   0.69900   0.28440   1.000
    C102    C    0.70950   0.66740   0.34500   1.000
    H70     H    0.65250   0.62100   0.34290   1.000
    C103    C    0.77930   0.69100   0.38300   1.000
    C104    C    0.85640   0.76020   0.38550   1.000
    H71     H    0.90260   0.77810   0.41150   1.000
    C105    C    0.86780   0.80430   0.35060   1.000
    H72     H    0.92230   0.85270   0.35280   1.000
    C106    C    0.67790   0.53540   0.45140   1.000
    N34     N    0.75220   0.53760   0.47960   1.000
    C107    C    0.83600   0.59600   0.47450   1.000
    N35     N    0.84710   0.64680   0.44530   1.000
    C108    C    0.76770   0.63880   0.41940   1.000
    N36     N    0.67990   0.58420   0.42140   1.000
    N37     N    0.18150   0.72830   0.64720   1.000
    C109    C    0.24740   0.79270   0.67120   1.000
    H73     H    0.31190   0.80910   0.66360   1.000
    C110    C    0.22490   0.83800   0.70780   1.000
    H74     H    0.27420   0.88290   0.72540   1.000
    C111    C    0.13140   0.81650   0.71780   1.000
    C112    C    0.06410   0.74980   0.69170   1.000
    H75     H    0.99840   0.73350   0.69760   1.000
    C113    C    0.09010   0.70640   0.65730   1.000
    H76     H    0.04240   0.65980   0.64030   1.000
    N38     N    0.35520   0.12390   0.91590   1.000
    C114    C    0.26390   0.12360   0.91270   1.000
    H77     H    0.24830   0.16010   0.93370   1.000
    C115    C    0.19230   0.07230   0.88010   1.000
    H78     H    0.12880   0.07400   0.87850   1.000
    C116    C    0.21470   0.01790   0.84960   1.000
    C117    C    0.30870   0.01870   0.85210   1.000
    H79     H    0.32620   0.98300   0.83130   1.000
    C118    C    0.37620   0.07220   0.88540   1.000
    H80     H    0.44060   0.07270   0.88700   1.000
    N39     N    0.68570   0.84170   0.79060   1.000
    C119    C    0.74980   0.90050   0.82000   1.000
    H81     H    0.72730   0.93420   0.83980   1.000
    C120    C    0.84670   0.91440   0.82270   1.000
    H82     H    0.89020   0.95620   0.84460   1.000
    C121    C    0.88050   0.86750   0.79380   1.000
    C122    C    0.81420   0.80450   0.76290   1.000
    H83     H    0.83480   0.77010   0.74270   1.000
    C123    C    0.71700   0.79450   0.76310   1.000
    H84     H    0.67090   0.75190   0.74260   1.000
    C124    C    0.10360   0.86320   0.75500   1.000
    N40     N    0.00950   0.84050   0.75890   1.000
    C125    C    0.98770   0.88550   0.79160   1.000
    N41     N    0.04830   0.94430   0.82230   1.000
    C126    C    0.14030   0.95680   0.81520   1.000
    N42     N    0.17280   0.92200   0.78150   1.000
    N43     N    0.48660   0.75610   0.83260   1.000
    C127    C    0.41540   0.76730   0.85470   1.000
    H85     H    0.39120   0.80760   0.84750   1.000
    C128    C    0.37640   0.72240   0.88740   1.000
    H86     H    0.32820   0.73310   0.90380   1.000
    C129    C    0.40850   0.66080   0.89630   1.000
    C130    C    0.48070   0.64950   0.87360   1.000
    H87     H    0.50490   0.60870   0.87970   1.000
    C131    C    0.51810   0.69790   0.84190   1.000
    H88     H    0.56820   0.68950   0.82600   1.000
    N44     N    0.03700   0.61780   0.05160   1.000
    C132    C    0.06130   0.55370   0.05560   1.000
    H89     H    0.02700   0.51680   0.07450   1.000
    C133    C    0.13260   0.53820   0.03410   1.000
    H90     H    0.14800   0.49220   0.03850   1.000
    C134    C    0.18200   0.58960   0.00610   1.000
    C135    C    0.15560   0.65590   0.00000   1.000
    H91     H    0.18610   0.69200   0.98000   1.000
    C136    C    0.08390   0.66690   0.02400   1.000
    H92     H    0.06690   0.71250   0.02050   1.000
    N45     N    0.42350   0.29430   0.97390   1.000
    C137    C    0.43820   0.33160   0.93830   1.000
    H93     H    0.46500   0.31090   0.91380   1.000
    C138    C    0.41620   0.40010   0.93510   1.000
    H94     H    0.42450   0.42450   0.90840   1.000
    C139    C    0.38230   0.43140   0.97120   1.000
    C140    C    0.36580   0.39230   0.00690   1.000
    H95     H    0.33870   0.41150   0.03180   1.000
    C141    C    0.38850   0.32380   0.00750   1.000
    H96     H    0.37800   0.29730   0.03340   1.000
    C142    C    0.36590   0.60950   0.93020   1.000
    N46     N    0.29880   0.62640   0.95270   1.000
    C143    C    0.26250   0.57710   0.98250   1.000
    N47     N    0.28700   0.51410   0.99060   1.000
    C144    C    0.35460   0.50310   0.96540   1.000
    N48     N    0.39630   0.54850   0.93500   1.000
    I27     I    0.87500   0.72470   0.05120   1.000
    I28     I    0.86200   0.52670   0.13340   1.000
    I29     I    0.25930   0.18110   0.50953   1.000
    I30     I    0.16190   0.30120   0.39931   1.000
    Zn14    Zn   0.82300   0.84020   0.25699   1.000
    I31     I    0.78773   0.73389   0.18800   1.000
    I32     I    0.97858   0.95762   0.27793   1.000
    I33     I    0.21170   0.53566   0.64139   1.000
    I34     I    0.35910   0.73910   0.56249   1.000
    Zn15    Zn   0.43550   0.17980   0.98090   1.000
    I35     I    0.60410   0.19820   0.96300   1.000
    I36     I    0.34930   0.11530   0.04790   1.000
    I37     I    0.47020   0.73500   0.70566   1.000
    I38     I    0.52200   0.95560   0.80890   1.000
    I39     I    0.87660   0.74570   0.04800   1.000
    I40     I    0.85920   0.54110   0.13050   1.000
    I41     I    0.25760   0.18790   0.50948   1.000
    I42     I    0.15950   0.29710   0.39785   1.000
    Zn16    Zn   0.83130   0.85790   0.26580   1.000
    I43     I    0.81640   0.77000   0.18960   1.000
    I44     I    0.98070   0.98700   0.29110   1.000
    I45     I    0.19200   0.53130   0.64510   1.000
    I46     I    0.35110   0.72470   0.56350   1.000
    Zn17    Zn   0.45810   0.18820   0.97100   1.000
    I47     I    0.61630   0.22120   0.93310   1.000
    I48     I    0.41090   0.12320   0.03869   1.000
    I49     I    0.47110   0.75810   0.70920   1.000
    I50     I    0.52610   0.96950   0.81620   1.000
    Zn18    Zn   0.47260   0.20480   0.95180   1.000
    I51     I    0.62200   0.24880   0.90330   1.000
    I52     I    0.47310   0.14120   0.02110   1.000
    C145    C    0.39400   0.51800   0.29030   1.000
    C146    C    0.43800   0.59900   0.32150   1.000
    H97     H    0.50650   0.63710   0.32470   1.000
    C147    C    0.37900   0.54700   0.36150   1.000
    H98     H    0.40930   0.54990   0.39270   1.000
    C148    C    0.34800   0.47200   0.32410   1.000
    H99     H    0.34900   0.41760   0.32860   1.000
    C149    C    0.25500   0.49000   0.30850   1.000
    H100    H    0.18680   0.45030   0.30390   1.000
    C150    C    0.30400   0.54000   0.27430   1.000
    H101    H    0.27790   0.53760   0.24230   1.000
    C151    C    0.34800   0.61600   0.30960   1.000
    H102    H    0.34940   0.67040   0.30400   1.000
    C152    C    0.30100   0.57400   0.35150   1.000
    C153    C    0.43600   0.47700   0.26710   1.000
    O1      O    0.54980   0.52360   0.26330   1.000
    O2      O    0.41620   0.43380   0.22210   1.000
    C154    C    0.61500   0.49800   0.23710   1.000
    H103    H    0.67910   0.54000   0.24220   1.000
    H104    H    0.61850   0.44830   0.24630   1.000
    H105    H    0.59080   0.48810   0.20480   1.000
    C155    C    0.28400   0.58800   0.39820   1.000
    O3      O    0.27900   0.67600   0.39210   1.000
    O4      O    0.18000   0.56200   0.39320   1.000
    C156    C    0.23300   0.71100   0.42550   1.000
    H106    H    0.23440   0.76350   0.41840   1.000
    H107    H    0.16610   0.67530   0.42530   1.000
    H108    H    0.26800   0.71840   0.45550   1.000
    C157    C    0.40900   0.00500   0.53900   1.000
    H109    H    0.33880   0.97300   0.53210   1.000
    H110    H    0.44280   0.96860   0.54620   1.000
    C158    C    0.44800   0.04500   0.49680   1.000
    H111    H    0.41500   0.00960   0.46800   1.000
    H112    H    0.44080   0.09770   0.49710   1.000
    C159    C    0.55600   0.05300   0.50440   1.000
    H113    H    0.56720   0.00650   0.48760   1.000
    H114    H    0.59910   0.10340   0.49540   1.000
    C160    C    0.56900   0.05400   0.55620   1.000
    H115    H    0.63770   0.06570   0.56640   1.000
    H116    H    0.53060   0.00050   0.56380   1.000
    C161    C    0.53400   0.12000   0.58100   1.000
    H117    H    0.56570   0.13870   0.61240   1.000
    H118    H    0.54630   0.16650   0.56440   1.000
    C162    C    0.42500   0.07200   0.57970   1.000
    H119    H    0.38650   0.10600   0.57440   1.000
    H120    H    0.41000   0.04940   0.60810   1.000
    C163    C    0.40200   0.67900   0.41700   1.000
    H121    H    0.45080   0.67780   0.44040   1.000
    H122    H    0.33850   0.63850   0.42060   1.000
    C164    C    0.43100   0.66400   0.36900   1.000
    H123    H    0.37490   0.62750   0.34800   1.000
    H124    H    0.48290   0.64160   0.36960   1.000
    C165    C    0.46700   0.75100   0.35550   1.000
    H125    H    0.49210   0.74930   0.32550   1.000
    H126    H    0.41360   0.77140   0.35370   1.000
    C166    C    0.54800   0.80500   0.39200   1.000
    H127    H    0.59030   0.77560   0.40120   1.000
    H128    H    0.58810   0.85350   0.38020   1.000
    C167    C    0.50000   0.82800   0.43210   1.000
    H129    H    0.50070   0.88340   0.43340   1.000
    H130    H    0.53110   0.82210   0.46110   1.000
    C168    C    0.39500   0.76500   0.42100   1.000
    H131    H    0.36380   0.77250   0.39280   1.000
    H132    H    0.35540   0.77220   0.44610   1.000
    C169    C    0.52600   0.50600   0.28500   1.000
    H133    H    0.57030   0.55300   0.30650   1.000
    H134    H    0.48260   0.46880   0.30340   1.000
    C170    C    0.58600   0.46300   0.26000   1.000
    H135    H    0.54160   0.41380   0.24000   1.000
    H136    H    0.62510   0.44610   0.28170   1.000
    C171    C    0.65300   0.51900   0.23000   1.000
    H137    H    0.70170   0.56510   0.25030   1.000
    H138    H    0.68830   0.48890   0.21300   1.000
    C172    C    0.59400   0.54800   0.19800   1.000
    H139    H    0.54940   0.50220   0.17630   1.000
    H140    H    0.63840   0.58570   0.17990   1.000
    C173    C    0.53600   0.59200   0.22400   1.000
    H141    H    0.58090   0.63930   0.24530   1.000
    H142    H    0.49920   0.61220   0.20280   1.000
    C174    C    0.46600   0.53400   0.25100   1.000
    H143    H    0.42190   0.48650   0.23010   1.000
    H144    H    0.42720   0.56050   0.26740   1.000
    C175    C    0.60600   0.48200   0.70970   1.000
    C176    C    0.56200   0.40100   0.67850   1.000
    H145    H    0.49350   0.36290   0.67530   1.000
    C177    C    0.62100   0.45300   0.63850   1.000
    H146    H    0.59070   0.45010   0.60730   1.000
    C178    C    0.65200   0.52800   0.67590   1.000
    H147    H    0.65100   0.58240   0.67140   1.000
    C179    C    0.74500   0.51000   0.69150   1.000
    H148    H    0.81320   0.54970   0.69610   1.000
    C180    C    0.69600   0.46000   0.72570   1.000
    H149    H    0.72210   0.46240   0.75770   1.000
    C181    C    0.65200   0.38400   0.69040   1.000
    H150    H    0.65060   0.32960   0.69600   1.000
    C182    C    0.69900   0.42600   0.64850   1.000
    C183    C    0.56400   0.52300   0.73290   1.000
    O5      O    0.45020   0.47640   0.73670   1.000
    O6      O    0.58380   0.56620   0.77790   1.000
    C184    C    0.38500   0.50200   0.76290   1.000
    H151    H    0.32090   0.46000   0.75780   1.000
    H152    H    0.38150   0.55170   0.75370   1.000
    H153    H    0.40920   0.51190   0.79520   1.000
    C185    C    0.71600   0.41200   0.60180   1.000
    O7      O    0.72100   0.32400   0.60790   1.000
    O8      O    0.82000   0.43800   0.60680   1.000
    C186    C    0.76700   0.28900   0.57450   1.000
    H154    H    0.76560   0.23650   0.58160   1.000
    H155    H    0.83390   0.32470   0.57470   1.000
    H156    H    0.73200   0.28160   0.54450   1.000
    C187    C    0.59100   0.99500   0.46100   1.000
    H157    H    0.66120   0.02700   0.46790   1.000
    H158    H    0.55720   0.03140   0.45380   1.000
    C188    C    0.55200   0.95500   0.50320   1.000
    H159    H    0.58500   0.99040   0.53200   1.000
    H160    H    0.55920   0.90230   0.50290   1.000
    C189    C    0.44400   0.94700   0.49560   1.000
    H161    H    0.43280   0.99350   0.51240   1.000
    H162    H    0.40090   0.89660   0.50460   1.000
    C190    C    0.43100   0.94600   0.44380   1.000
    H163    H    0.36230   0.93430   0.43360   1.000
    H164    H    0.46940   0.99950   0.43620   1.000
    C191    C    0.46600   0.88000   0.41900   1.000
    H165    H    0.43430   0.86130   0.38760   1.000
    H166    H    0.45370   0.83350   0.43560   1.000
    C192    C    0.57500   0.92800   0.42030   1.000
    H167    H    0.61350   0.89400   0.42560   1.000
    H168    H    0.59000   0.95060   0.39190   1.000
    C193    C    0.59800   0.32100   0.58300   1.000
    H169    H    0.54920   0.32220   0.55960   1.000
    H170    H    0.66150   0.36150   0.57940   1.000
    C194    C    0.56900   0.33600   0.63100   1.000
    H171    H    0.62510   0.37250   0.65200   1.000
    H172    H    0.51710   0.35840   0.63040   1.000
    C195    C    0.53300   0.24900   0.64450   1.000
    H173    H    0.50790   0.25070   0.67450   1.000
    H174    H    0.58640   0.22860   0.64630   1.000
    C196    C    0.45200   0.19500   0.60800   1.000
    H175    H    0.40970   0.22440   0.59880   1.000
    H176    H    0.41190   0.14650   0.61980   1.000
    C197    C    0.50000   0.17200   0.56790   1.000
    H177    H    0.49930   0.11660   0.56660   1.000
    H178    H    0.46890   0.17790   0.53890   1.000
    C198    C    0.60500   0.23500   0.57900   1.000
    H179    H    0.63620   0.22750   0.60720   1.000
    H180    H    0.64460   0.22780   0.55390   1.000
    C199    C    0.47400   0.49400   0.71500   1.000
    H181    H    0.42970   0.44700   0.69350   1.000
    H182    H    0.51740   0.53120   0.69660   1.000
    C200    C    0.41400   0.53700   0.74000   1.000
    H183    H    0.45840   0.58620   0.76000   1.000
    H184    H    0.37490   0.55390   0.71830   1.000
    C201    C    0.34700   0.48100   0.77000   1.000
    H185    H    0.29830   0.43490   0.74970   1.000
    H186    H    0.31170   0.51110   0.78700   1.000
    C202    C    0.40600   0.45200   0.80200   1.000
    H187    H    0.45060   0.49780   0.82370   1.000
    H188    H    0.36160   0.41430   0.82010   1.000
    C203    C    0.46400   0.40800   0.77600   1.000
    H189    H    0.41910   0.36070   0.75470   1.000
    H190    H    0.50080   0.38780   0.79720   1.000
    C204    C    0.53400   0.46600   0.74900   1.000
    H191    H    0.57810   0.51350   0.76990   1.000
    H192    H    0.57280   0.43950   0.73260   1.000
