data_functionalizedCrystal
_audit_creation_method	'EQeq! by Chris Wilmer'
_symmetry_space_group_name_H-M	'P1'
_symmetry_Int_Tables_number	1
_symmetry_cell_setting	triclinic
loop_
_symmetry_equiv_pos_as_xyz
  x,y,z
_cell_length_a	11.261
_cell_length_b	11.261
_cell_length_c	6.319
_cell_angle_alpha	90
_cell_angle_beta	90
_cell_angle_gamma	90
loop_
_atom_site_label
_atom_site_type_symbol
_atom_site_fract_x
_atom_site_fract_y
_atom_site_fract_z
_atom_site_charge
Mof_N 	N 	0.39	0.858	0.168	-0.122
Mof_C 	C 	0.446	0.9162	0.264	0.016
Mof_C 	C 	0.5207	0.9976	0.39	-0.043
Mof_H 	H 	0.5175	0.0765	0.3281	0.015
Mof_H 	H 	0.6025	0.9709	0.3859	0.022
Mof_N 	N 	0.357	0.835	0.258	-0.124
Mof_C 	C 	0.396	0.882	0.392	0.079
Mof_C 	C 	0.451	0.964	0.545	-0.086
Mof_H 	H 	0.3906	0.0174	0.5987	0.027
Mof_H 	H 	0.4816	0.9186	0.6629	0.033
Mof_N 	N 	0.11	0.642	0.168	-0.123
Mof_C 	C 	0.054	0.5838	0.264	0.022
Mof_C 	C 	0.9793	0.5024	0.39	-0.069
Mof_H 	H 	0.9825	0.4235	0.3281	0.014
Mof_H 	H 	0.8975	0.5291	0.3859	0.017
Mof_N 	N 	0.143	0.665	0.258	-0.127
Mof_C 	C 	0.104	0.618	0.392	0.087
Mof_C 	C 	0.049	0.536	0.545	-0.114
Mof_H 	H 	0.1094	0.4826	0.5987	0.022
Mof_H 	H 	0.0184	0.5814	0.6629	0.031
Mof_N 	N 	0.642	0.39	0.168	-0.125
Mof_C 	C 	0.5838	0.446	0.264	0.028
Mof_C 	C 	0.5024	0.5207	0.39	-0.083
Mof_H 	H 	0.4235	0.5175	0.3281	0.013
Mof_H 	H 	0.5291	0.6025	0.3859	0.016
Mof_N 	N 	0.665	0.357	0.258	-0.127
Mof_C 	C 	0.618	0.396	0.392	0.089
Mof_C 	C 	0.536	0.451	0.545	-0.124
Mof_H 	H 	0.4826	0.3906	0.5987	0.02
Mof_H 	H 	0.5814	0.4816	0.6629	0.031
Mof_N 	N 	0.858	0.11	0.168	-0.12
Mof_C 	C 	0.9162	0.054	0.264	0.011
Mof_C 	C 	0.9976	0.9793	0.39	-0.03
Mof_H 	H 	0.0765	0.9825	0.3281	0.016
Mof_H 	H 	0.9709	0.8975	0.3859	0.023
Mof_N 	N 	0.835	0.143	0.258	-0.124
Mof_C 	C 	0.882	0.104	0.392	0.077
Mof_C 	C 	0.964	0.049	0.545	-0.077
Mof_H 	H 	0.0174	0.1094	0.5987	0.029
Mof_H 	H 	0.9186	0.0184	0.6629	0.034
Mof_N 	N 	0.61	0.142	0.832	-0.099
Mof_C 	C 	0.554	0.0838	0.736	0.098
Mof_C 	C 	0.4793	0.0024	0.61	-0.055
Mof_H 	H 	0.4825	0.9235	0.6719	0.033
Mof_H 	H 	0.3975	0.0291	0.6141	0.033
Mof_N 	N 	0.643	0.165	0.742	-0.095
Mof_C 	C 	0.604	0.118	0.608	0.015
Mof_C 	C 	0.549	0.036	0.455	-0.04
Mof_H 	H 	0.6094	0.9826	0.4013	0.016
Mof_H 	H 	0.5184	0.0814	0.3371	0.013
Mof_N 	N 	0.89	0.358	0.832	-0.098
Mof_C 	C 	0.946	0.4162	0.736	0.092
Mof_C 	C 	0.0207	0.4976	0.61	-0.029
Mof_H 	H 	0.0175	0.5765	0.6719	0.034
Mof_H 	H 	0.1025	0.4709	0.6141	0.038
Mof_N 	N 	0.857	0.335	0.742	-0.092
Mof_C 	C 	0.896	0.382	0.608	0.007
Mof_C 	C 	0.951	0.464	0.455	-0.013
Mof_H 	H 	0.8906	0.5174	0.4013	0.02
Mof_H 	H 	0.9816	0.4186	0.3371	0.015
Mof_N 	N 	0.358	0.61	0.832	-0.096
Mof_C 	C 	0.4162	0.554	0.736	0.086
Mof_C 	C 	0.4976	0.4793	0.61	-0.015
Mof_H 	H 	0.5765	0.4825	0.6719	0.035
Mof_H 	H 	0.4709	0.3975	0.6141	0.039
Mof_N 	N 	0.335	0.643	0.742	-0.092
Mof_C 	C 	0.382	0.604	0.608	0.005
Mof_C 	C 	0.464	0.549	0.455	-0.002
Mof_H 	H 	0.5174	0.6094	0.4013	0.022
Mof_H 	H 	0.4186	0.5184	0.3371	0.016
Mof_N 	N 	0.142	0.89	0.832	-0.101
Mof_C 	C 	0.0838	0.946	0.736	0.103
Mof_C 	C 	0.0024	0.0207	0.61	-0.068
Mof_H 	H 	0.9235	0.0175	0.6719	0.032
Mof_H 	H 	0.0291	0.1025	0.6141	0.032
Mof_N 	N 	0.165	0.857	0.742	-0.095
Mof_C 	C 	0.118	0.896	0.608	0.017
Mof_C 	C 	0.036	0.951	0.455	-0.05
Mof_H 	H 	0.9826	0.8906	0.4013	0.013
Mof_H 	H 	0.0814	0.9816	0.3371	0.012
Mof_Ag	Ag	0.25	0.75	-0	0.53
Mof_Ag	Ag	0.75	0.25	-0	0.53
_end
