data_functionalizedCrystal
_audit_creation_method	'EQeq! by Chris Wilmer'
_symmetry_space_group_name_H-M	'P1'
_symmetry_Int_Tables_number	1
_symmetry_cell_setting	triclinic
loop_
_symmetry_equiv_pos_as_xyz
  x,y,z
_cell_length_a	20.251
_cell_length_b	20.251
_cell_length_c	20.251
_cell_angle_alpha	90
_cell_angle_beta	90
_cell_angle_gamma	90
loop_
_atom_site_label
_atom_site_type_symbol
_atom_site_fract_x
_atom_site_fract_y
_atom_site_fract_z
_atom_site_charge
Mof_Zn	Zn	0.16237	0.16237	0.16237	1.174
Mof_Zn	Zn	0.26359	0.26359	0.26359	1.294
Mof_O 	O 	0.324	0.324	0.324	0.412
Mof_Zn	Zn	0.83763	0.83763	0.16237	1.181
Mof_Zn	Zn	0.73641	0.73641	0.26359	1.294
Mof_O 	O 	0.676	0.676	0.324	0.409
Mof_Zn	Zn	0.83763	0.16237	0.83763	1.18
Mof_Zn	Zn	0.73641	0.26359	0.73641	1.293
Mof_O 	O 	0.676	0.324	0.676	0.408
Mof_Zn	Zn	0.16237	0.83763	0.83763	1.18
Mof_Zn	Zn	0.26359	0.73641	0.73641	1.293
Mof_O 	O 	0.324	0.676	0.676	0.408
Mof_Zn	Zn	0.16237	0.16237	0.83763	1.177
Mof_Zn	Zn	0.26359	0.26359	0.73641	1.293
Mof_O 	O 	0.324	0.324	0.676	0.409
Mof_Zn	Zn	0.83763	0.83763	0.83763	1.184
Mof_Zn	Zn	0.73641	0.73641	0.73641	1.293
Mof_O 	O 	0.676	0.676	0.676	0.406
Mof_Zn	Zn	0.16237	0.83763	0.16237	1.177
Mof_Zn	Zn	0.26359	0.73641	0.26359	1.293
Mof_O 	O 	0.324	0.676	0.324	0.409
Mof_Zn	Zn	0.83763	0.16237	0.16237	1.177
Mof_Zn	Zn	0.73641	0.26359	0.26359	1.293
Mof_O 	O 	0.676	0.324	0.324	0.409
Mof_O 	O 	0.1795	0.2829	0.2829	-0.551
Mof_O 	O 	0.0578	0.4294	0.4294	-0.466
Mof_O 	O 	0.1188	0.2235	0.2235	-0.601
Mof_C 	C 	0.0583	0.3391	0.3391	0.104
Mof_H 	H 	0.0985	0.3562	0.3562	0.043
Mof_C 	C 	0.0607	0.2905	0.2905	-0.225
Mof_C 	C 	0.1258	0.2653	0.2653	0.572
Mof_O 	O 	0.284	0.338	0.338	-0.288
Mof_O 	O 	0.8205	0.7171	0.2829	-0.546
Mof_O 	O 	0.9422	0.5706	0.4294	-0.443
Mof_O 	O 	0.8812	0.7765	0.2235	-0.584
Mof_C 	C 	0.9417	0.6609	0.3391	0.132
Mof_H 	H 	0.9015	0.6438	0.3562	0.039
Mof_C 	C 	0.9393	0.7095	0.2905	-0.2
Mof_C 	C 	0.8742	0.7347	0.2653	0.568
Mof_O 	O 	0.716	0.662	0.338	-0.286
Mof_O 	O 	0.8205	0.2829	0.7171	-0.546
Mof_O 	O 	0.9422	0.4294	0.5706	-0.443
Mof_O 	O 	0.8812	0.2235	0.7765	-0.584
Mof_C 	C 	0.9417	0.3391	0.6609	0.132
Mof_H 	H 	0.9015	0.3562	0.6438	0.039
Mof_C 	C 	0.9393	0.2905	0.7095	-0.2
Mof_C 	C 	0.8742	0.2653	0.7347	0.568
Mof_O 	O 	0.716	0.338	0.662	-0.286
Mof_O 	O 	0.1795	0.7171	0.7171	-0.548
Mof_O 	O 	0.0578	0.5706	0.5706	-0.465
Mof_O 	O 	0.1188	0.7765	0.7765	-0.592
Mof_C 	C 	0.0583	0.6609	0.6609	0.103
Mof_H 	H 	0.0985	0.6438	0.6438	0.045
Mof_C 	C 	0.0607	0.7095	0.7095	-0.219
Mof_C 	C 	0.1258	0.7347	0.7347	0.571
Mof_O 	O 	0.284	0.662	0.662	-0.286
Mof_O 	O 	0.2829	0.1795	0.2829	-0.551
Mof_O 	O 	0.4294	0.0578	0.4294	-0.466
Mof_O 	O 	0.2235	0.1188	0.2235	-0.601
Mof_C 	C 	0.3391	0.0583	0.3391	0.104
Mof_H 	H 	0.3562	0.0985	0.3562	0.043
Mof_C 	C 	0.2905	0.0607	0.2905	-0.225
Mof_C 	C 	0.2653	0.1258	0.2653	0.572
Mof_O 	O 	0.338	0.284	0.338	-0.288
Mof_O 	O 	0.2829	0.8205	0.7171	-0.546
Mof_O 	O 	0.4294	0.9422	0.5706	-0.443
Mof_O 	O 	0.2235	0.8812	0.7765	-0.584
Mof_C 	C 	0.3391	0.9417	0.6609	0.132
Mof_H 	H 	0.3562	0.9015	0.6438	0.039
Mof_C 	C 	0.2905	0.9393	0.7095	-0.2
Mof_C 	C 	0.2653	0.8742	0.7347	0.568
Mof_O 	O 	0.338	0.716	0.662	-0.286
Mof_O 	O 	0.7171	0.8205	0.2829	-0.546
Mof_O 	O 	0.5706	0.9422	0.4294	-0.443
Mof_O 	O 	0.7765	0.8812	0.2235	-0.584
Mof_C 	C 	0.6609	0.9417	0.3391	0.132
Mof_H 	H 	0.6438	0.9015	0.3562	0.039
Mof_C 	C 	0.7095	0.9393	0.2905	-0.2
Mof_C 	C 	0.7347	0.8742	0.2653	0.568
Mof_O 	O 	0.662	0.716	0.338	-0.286
Mof_O 	O 	0.7171	0.1795	0.7171	-0.548
Mof_O 	O 	0.5706	0.0578	0.5706	-0.465
Mof_O 	O 	0.7765	0.1188	0.7765	-0.592
Mof_C 	C 	0.6609	0.0583	0.6609	0.103
Mof_H 	H 	0.6438	0.0985	0.6438	0.045
Mof_C 	C 	0.7095	0.0607	0.7095	-0.219
Mof_C 	C 	0.7347	0.1258	0.7347	0.571
Mof_O 	O 	0.662	0.284	0.662	-0.286
Mof_O 	O 	0.2829	0.2829	0.1795	-0.551
Mof_O 	O 	0.4294	0.4294	0.0578	-0.466
Mof_O 	O 	0.2235	0.2235	0.1188	-0.601
Mof_C 	C 	0.3391	0.3391	0.0583	0.104
Mof_H 	H 	0.3562	0.3562	0.0985	0.043
Mof_C 	C 	0.2905	0.2905	0.0607	-0.225
Mof_C 	C 	0.2653	0.2653	0.1258	0.572
Mof_O 	O 	0.338	0.338	0.284	-0.288
Mof_O 	O 	0.7171	0.2829	0.8205	-0.546
Mof_O 	O 	0.5706	0.4294	0.9422	-0.443
Mof_O 	O 	0.7765	0.2235	0.8812	-0.584
Mof_C 	C 	0.6609	0.3391	0.9417	0.132
Mof_H 	H 	0.6438	0.3562	0.9015	0.039
Mof_C 	C 	0.7095	0.2905	0.9393	-0.2
Mof_C 	C 	0.7347	0.2653	0.8742	0.568
Mof_O 	O 	0.662	0.338	0.716	-0.286
Mof_O 	O 	0.2829	0.7171	0.8205	-0.546
Mof_O 	O 	0.4294	0.5706	0.9422	-0.443
Mof_O 	O 	0.2235	0.7765	0.8812	-0.584
Mof_C 	C 	0.3391	0.6609	0.9417	0.132
Mof_H 	H 	0.3562	0.6438	0.9015	0.039
Mof_C 	C 	0.2905	0.7095	0.9393	-0.2
Mof_C 	C 	0.2653	0.7347	0.8742	0.568
Mof_O 	O 	0.338	0.662	0.716	-0.286
Mof_O 	O 	0.7171	0.7171	0.1795	-0.548
Mof_O 	O 	0.5706	0.5706	0.0578	-0.465
Mof_O 	O 	0.7765	0.7765	0.1188	-0.592
Mof_C 	C 	0.6609	0.6609	0.0583	0.103
Mof_H 	H 	0.6438	0.6438	0.0985	0.045
Mof_C 	C 	0.7095	0.7095	0.0607	-0.219
Mof_C 	C 	0.7347	0.7347	0.1258	0.571
Mof_O 	O 	0.662	0.662	0.284	-0.286
Mof_O 	O 	0.2829	0.1795	0.7171	-0.55
Mof_O 	O 	0.4294	0.0578	0.5706	-0.465
Mof_O 	O 	0.2235	0.1188	0.7765	-0.597
Mof_C 	C 	0.3391	0.0583	0.6609	0.104
Mof_H 	H 	0.3562	0.0985	0.6438	0.044
Mof_C 	C 	0.2905	0.0607	0.7095	-0.222
Mof_C 	C 	0.2653	0.1258	0.7347	0.572
Mof_O 	O 	0.338	0.284	0.662	-0.287
Mof_O 	O 	0.7171	0.8205	0.7171	-0.545
Mof_O 	O 	0.5706	0.9422	0.5706	-0.443
Mof_O 	O 	0.7765	0.8812	0.7765	-0.58
Mof_C 	C 	0.6609	0.9417	0.6609	0.131
Mof_H 	H 	0.6438	0.9015	0.6438	0.04
Mof_C 	C 	0.7095	0.9393	0.7095	-0.196
Mof_C 	C 	0.7347	0.8742	0.7347	0.568
Mof_O 	O 	0.662	0.716	0.662	-0.285
Mof_O 	O 	0.2829	0.8205	0.2829	-0.547
Mof_O 	O 	0.4294	0.9422	0.4294	-0.444
Mof_O 	O 	0.2235	0.8812	0.2235	-0.588
Mof_C 	C 	0.3391	0.9417	0.3391	0.132
Mof_H 	H 	0.3562	0.9015	0.3562	0.039
Mof_C 	C 	0.2905	0.9393	0.2905	-0.203
Mof_C 	C 	0.2653	0.8742	0.2653	0.569
Mof_O 	O 	0.338	0.716	0.338	-0.287
Mof_O 	O 	0.7171	0.1795	0.2829	-0.55
Mof_O 	O 	0.5706	0.0578	0.4294	-0.465
Mof_O 	O 	0.7765	0.1188	0.2235	-0.597
Mof_C 	C 	0.6609	0.0583	0.3391	0.104
Mof_H 	H 	0.6438	0.0985	0.3562	0.044
Mof_C 	C 	0.7095	0.0607	0.2905	-0.222
Mof_C 	C 	0.7347	0.1258	0.2653	0.572
Mof_O 	O 	0.662	0.284	0.338	-0.287
Mof_O 	O 	0.1795	0.2829	0.7171	-0.55
Mof_O 	O 	0.0578	0.4294	0.5706	-0.465
Mof_O 	O 	0.1188	0.2235	0.7765	-0.597
Mof_C 	C 	0.0583	0.3391	0.6609	0.104
Mof_H 	H 	0.0985	0.3562	0.6438	0.044
Mof_C 	C 	0.0607	0.2905	0.7095	-0.222
Mof_C 	C 	0.1258	0.2653	0.7347	0.572
Mof_O 	O 	0.284	0.338	0.662	-0.287
Mof_O 	O 	0.8205	0.2829	0.2829	-0.547
Mof_O 	O 	0.9422	0.4294	0.4294	-0.444
Mof_O 	O 	0.8812	0.2235	0.2235	-0.588
Mof_C 	C 	0.9417	0.3391	0.3391	0.132
Mof_H 	H 	0.9015	0.3562	0.3562	0.039
Mof_C 	C 	0.9393	0.2905	0.2905	-0.203
Mof_C 	C 	0.8742	0.2653	0.2653	0.569
Mof_O 	O 	0.716	0.338	0.338	-0.287
Mof_O 	O 	0.8205	0.7171	0.7171	-0.545
Mof_O 	O 	0.9422	0.5706	0.5706	-0.443
Mof_O 	O 	0.8812	0.7765	0.7765	-0.58
Mof_C 	C 	0.9417	0.6609	0.6609	0.131
Mof_H 	H 	0.9015	0.6438	0.6438	0.04
Mof_C 	C 	0.9393	0.7095	0.7095	-0.196
Mof_C 	C 	0.8742	0.7347	0.7347	0.568
Mof_O 	O 	0.716	0.662	0.662	-0.285
Mof_O 	O 	0.1795	0.7171	0.2829	-0.55
Mof_O 	O 	0.0578	0.5706	0.4294	-0.465
Mof_O 	O 	0.1188	0.7765	0.2235	-0.597
Mof_C 	C 	0.0583	0.6609	0.3391	0.104
Mof_H 	H 	0.0985	0.6438	0.3562	0.044
Mof_C 	C 	0.0607	0.7095	0.2905	-0.222
Mof_C 	C 	0.1258	0.7347	0.2653	0.572
Mof_O 	O 	0.284	0.662	0.338	-0.287
Mof_O 	O 	0.2829	0.2829	0.8205	-0.547
Mof_O 	O 	0.4294	0.4294	0.9422	-0.444
Mof_O 	O 	0.2235	0.2235	0.8812	-0.588
Mof_C 	C 	0.3391	0.3391	0.9417	0.132
Mof_H 	H 	0.3562	0.3562	0.9015	0.039
Mof_C 	C 	0.2905	0.2905	0.9393	-0.203
Mof_C 	C 	0.2653	0.2653	0.8742	0.569
Mof_O 	O 	0.338	0.338	0.716	-0.287
Mof_O 	O 	0.2829	0.7171	0.1795	-0.55
Mof_O 	O 	0.4294	0.5706	0.0578	-0.465
Mof_O 	O 	0.2235	0.7765	0.1188	-0.597
Mof_C 	C 	0.3391	0.6609	0.0583	0.104
Mof_H 	H 	0.3562	0.6438	0.0985	0.044
Mof_C 	C 	0.2905	0.7095	0.0607	-0.222
Mof_C 	C 	0.2653	0.7347	0.1258	0.572
Mof_O 	O 	0.338	0.662	0.284	-0.287
Mof_O 	O 	0.7171	0.2829	0.1795	-0.55
Mof_O 	O 	0.5706	0.4294	0.0578	-0.465
Mof_O 	O 	0.7765	0.2235	0.1188	-0.597
Mof_C 	C 	0.6609	0.3391	0.0583	0.104
Mof_H 	H 	0.6438	0.3562	0.0985	0.044
Mof_C 	C 	0.7095	0.2905	0.0607	-0.222
Mof_C 	C 	0.7347	0.2653	0.1258	0.572
Mof_O 	O 	0.662	0.338	0.284	-0.287
Mof_O 	O 	0.7171	0.7171	0.8205	-0.545
Mof_O 	O 	0.5706	0.5706	0.9422	-0.443
Mof_O 	O 	0.7765	0.7765	0.8812	-0.58
Mof_C 	C 	0.6609	0.6609	0.9417	0.131
Mof_H 	H 	0.6438	0.6438	0.9015	0.04
Mof_C 	C 	0.7095	0.7095	0.9393	-0.196
Mof_C 	C 	0.7347	0.7347	0.8742	0.568
Mof_O 	O 	0.662	0.662	0.716	-0.285
Mof_O 	O 	0.2819	0.377	0.2819	-0.051
Mof_O 	O 	0.7181	0.623	0.2819	-0.049
Mof_O 	O 	0.7181	0.377	0.7181	-0.047
Mof_O 	O 	0.2819	0.623	0.7181	-0.049
Mof_O 	O 	0.2819	0.2819	0.377	-0.051
Mof_O 	O 	0.2819	0.7181	0.623	-0.049
Mof_O 	O 	0.7181	0.7181	0.377	-0.047
Mof_O 	O 	0.7181	0.2819	0.623	-0.049
Mof_O 	O 	0.377	0.2819	0.2819	-0.051
Mof_O 	O 	0.623	0.2819	0.7181	-0.049
Mof_O 	O 	0.377	0.7181	0.7181	-0.047
Mof_O 	O 	0.623	0.7181	0.2819	-0.049
Mof_O 	O 	0.377	0.2819	0.7181	-0.049
Mof_O 	O 	0.623	0.7181	0.7181	-0.047
Mof_O 	O 	0.377	0.7181	0.2819	-0.049
Mof_O 	O 	0.623	0.2819	0.2819	-0.051
Mof_O 	O 	0.2819	0.2819	0.623	-0.051
Mof_O 	O 	0.7181	0.2819	0.377	-0.049
Mof_O 	O 	0.7181	0.7181	0.623	-0.047
Mof_O 	O 	0.2819	0.7181	0.377	-0.049
Mof_O 	O 	0.2819	0.377	0.7181	-0.049
Mof_O 	O 	0.2819	0.623	0.2819	-0.051
Mof_O 	O 	0.7181	0.377	0.2819	-0.049
Mof_O 	O 	0.7181	0.623	0.7181	-0.047
Mof_Zn	Zn	0.0731	0.5	0.5	1.191
Mof_Zn	Zn	0.9269	0.5	0.5	1.195
Mof_Zn	Zn	0.5	0.0731	0.5	1.191
Mof_Zn	Zn	0.5	0.9269	0.5	1.195
Mof_Zn	Zn	0.5	0.5	0.0731	1.191
Mof_Zn	Zn	0.5	0.5	0.9269	1.195
Mof_C 	C 	4.40059e-33	0.363	0.363	-0.127
Mof_C 	C 	9.97715e-34	0.2661	0.2661	0.117
Mof_H 	H 	8.7361e-34	0.233	0.233	-0.037
Mof_C 	C 	7.65575e-33	0.4205	0.4205	0.344
Mof_C 	C 	1.36103e-33	0.637	0.363	-0.125
Mof_C 	C 	9.97715e-34	0.7339	0.2661	0.116
Mof_H 	H 	-2.16595e-33	0.767	0.233	-0.033
Mof_C 	C 	1.57662e-33	0.5795	0.4205	0.344
Mof_C 	C 	2.38837e-33	0.363	0.637	-0.125
Mof_C 	C 	-3.32744e-33	0.2661	0.7339	0.116
Mof_H 	H 	-3.20333e-33	0.233	0.767	-0.033
Mof_C 	C 	2.17278e-33	0.4205	0.5795	0.344
Mof_C 	C 	2.38837e-33	0.637	0.637	-0.123
Mof_C 	C 	8.83081e-33	0.7339	0.7339	0.115
Mof_H 	H 	-3.20333e-33	0.767	0.767	-0.029
Mof_C 	C 	2.17278e-33	0.5795	0.5795	0.344
Mof_C 	C 	0.363	3.03956e-33	0.363	-0.127
Mof_C 	C 	0.2661	0	0.2661	0.117
Mof_H 	H 	0.233	0	0.233	-0.037
Mof_C 	C 	0.4205	3.03956e-33	0.4205	0.344
Mof_C 	C 	0.363	0	0.637	-0.125
Mof_C 	C 	0.2661	6.07912e-33	0.7339	0.116
Mof_H 	H 	0.233	0	0.767	-0.033
Mof_C 	C 	0.4205	0	0.5795	0.344
Mof_C 	C 	0.637	3.03956e-33	0.363	-0.125
Mof_C 	C 	0.7339	0	0.2661	0.116
Mof_H 	H 	0.767	0	0.233	-0.033
Mof_C 	C 	0.5795	3.03956e-33	0.4205	0.344
Mof_C 	C 	0.637	0	0.637	-0.123
Mof_C 	C 	0.7339	6.07912e-33	0.7339	0.115
Mof_H 	H 	0.767	0	0.767	-0.029
Mof_C 	C 	0.5795	0	0.5795	0.344
Mof_C 	C 	0.363	0.363	-0	-0.127
Mof_C 	C 	0.2661	0.2661	-0	0.117
Mof_H 	H 	0.233	0.233	-0	-0.037
Mof_C 	C 	0.4205	0.4205	-0	0.344
Mof_C 	C 	0.637	0.363	-0	-0.125
Mof_C 	C 	0.7339	0.2661	-0	0.116
Mof_H 	H 	0.767	0.233	-0	-0.033
Mof_C 	C 	0.5795	0.4205	-0	0.344
Mof_C 	C 	0.363	0.637	-0	-0.125
Mof_C 	C 	0.2661	0.7339	-0	0.116
Mof_H 	H 	0.233	0.767	-0	-0.033
Mof_C 	C 	0.4205	0.5795	-0	0.344
Mof_C 	C 	0.637	0.637	-0	-0.123
Mof_C 	C 	0.7339	0.7339	-0	0.115
Mof_H 	H 	0.767	0.767	-0	-0.029
Mof_C 	C 	0.5795	0.5795	-0	0.344
_end
