data_functionalizedCrystal
_audit_creation_method	'EQeq! by Chris Wilmer'
_symmetry_space_group_name_H-M	'P1'
_symmetry_Int_Tables_number	1
_symmetry_cell_setting	triclinic
loop_
_symmetry_equiv_pos_as_xyz
  x,y,z
_cell_length_a	9.8941
_cell_length_b	9.8941
_cell_length_c	9.8941
_cell_angle_alpha	90
_cell_angle_beta	90
_cell_angle_gamma	90
loop_
_atom_site_label
_atom_site_type_symbol
_atom_site_fract_x
_atom_site_fract_y
_atom_site_fract_z
_atom_site_charge
Mof_C 	C 	0.5995	0.2461	0.0264	-0.171
Mof_C 	C 	0.6484	0.3656	0.9457	0.054
Mof_C 	C 	0.5737	0.3296	0.9019	0.067
Mof_C 	C 	0.6029	0.2419	0.0215	-0.15
Mof_N 	N 	0.518	0.2393	0.9347	-0.153
Mof_N 	N 	0.607	0.2213	0.0327	0.403
Mof_N 	N 	0.6982	0.3171	0.0293	-0.16
Mof_O 	O 	0.7157	0.227	0.0761	0.201
Mof_O 	O 	0.5152	0.1501	0.0238	-0.367
Mof_O 	O 	0.6826	0.2264	0.1187	-0.359
Mof_O 	O 	0.4837	0.1989	0.0298	0.225
Mof_C 	C 	0.9005	0.7539	0.5264	-0.173
Mof_C 	C 	0.8516	0.6344	0.4457	0.054
Mof_C 	C 	0.9263	0.6704	0.4019	0.068
Mof_C 	C 	0.8971	0.7581	0.5215	-0.149
Mof_N 	N 	0.982	0.7607	0.4347	-0.148
Mof_N 	N 	0.893	0.7787	0.5327	0.405
Mof_N 	N 	0.8018	0.6829	0.5293	-0.16
Mof_O 	O 	0.7843	0.773	0.5761	0.205
Mof_O 	O 	0.9848	0.8499	0.5238	-0.346
Mof_O 	O 	0.8174	0.7736	0.6187	-0.363
Mof_O 	O 	0.0163	0.8011	0.5298	0.201
Mof_C 	C 	0.4005	0.7461	0.4736	-0.17
Mof_C 	C 	0.3516	0.8656	0.5543	0.055
Mof_C 	C 	0.4263	0.8296	0.5981	0.071
Mof_C 	C 	0.3971	0.7419	0.4785	-0.149
Mof_N 	N 	0.482	0.7393	0.5653	-0.15
Mof_N 	N 	0.393	0.7213	0.4673	0.402
Mof_N 	N 	0.3018	0.8171	0.4707	-0.159
Mof_O 	O 	0.2843	0.727	0.4239	0.198
Mof_O 	O 	0.4848	0.6501	0.4762	-0.36
Mof_O 	O 	0.3174	0.7264	0.3813	-0.356
Mof_O 	O 	0.5163	0.6989	0.4702	0.215
Mof_C 	C 	0.0995	0.2539	0.9736	-0.17
Mof_C 	C 	0.1484	0.1344	0.0543	0.054
Mof_C 	C 	0.0737	0.1704	0.0981	0.072
Mof_C 	C 	0.1029	0.2581	0.9785	-0.147
Mof_N 	N 	0.018	0.2607	0.0653	-0.146
Mof_N 	N 	0.107	0.2787	0.9673	0.4
Mof_N 	N 	0.1982	0.1829	0.9707	-0.163
Mof_O 	O 	0.2157	0.273	0.9239	0.202
Mof_O 	O 	0.0152	0.3499	0.9762	-0.362
Mof_O 	O 	0.1826	0.2736	0.8813	-0.359
Mof_O 	O 	0.9837	0.3011	0.9702	0.214
Mof_C 	C 	0.0264	0.5995	0.2461	-0.17
Mof_C 	C 	0.9457	0.6484	0.3656	0.055
Mof_C 	C 	0.9019	0.5737	0.3296	0.068
Mof_C 	C 	0.0215	0.6029	0.2419	-0.149
Mof_N 	N 	0.9347	0.518	0.2393	-0.152
Mof_N 	N 	0.0327	0.607	0.2213	0.404
Mof_N 	N 	0.0293	0.6982	0.3171	-0.16
Mof_O 	O 	0.0761	0.7157	0.227	0.201
Mof_O 	O 	0.0238	0.5152	0.1501	-0.367
Mof_O 	O 	0.1187	0.6826	0.2264	-0.359
Mof_O 	O 	0.0298	0.4837	0.1989	0.225
Mof_C 	C 	0.5264	0.9005	0.7539	-0.173
Mof_C 	C 	0.4457	0.8516	0.6344	0.054
Mof_C 	C 	0.4019	0.9263	0.6704	0.068
Mof_C 	C 	0.5215	0.8971	0.7581	-0.149
Mof_N 	N 	0.4347	0.982	0.7607	-0.148
Mof_N 	N 	0.5327	0.893	0.7787	0.405
Mof_N 	N 	0.5293	0.8018	0.6829	-0.16
Mof_O 	O 	0.5761	0.7843	0.773	0.205
Mof_O 	O 	0.5238	0.9848	0.8499	-0.346
Mof_O 	O 	0.6187	0.8174	0.7736	-0.363
Mof_O 	O 	0.5298	0.0163	0.8011	0.201
Mof_C 	C 	0.4736	0.4005	0.7461	-0.17
Mof_C 	C 	0.5543	0.3516	0.8656	0.055
Mof_C 	C 	0.5981	0.4263	0.8296	0.071
Mof_C 	C 	0.4785	0.3971	0.7419	-0.149
Mof_N 	N 	0.5653	0.482	0.7393	-0.15
Mof_N 	N 	0.4673	0.393	0.7213	0.402
Mof_N 	N 	0.4707	0.3018	0.8171	-0.159
Mof_O 	O 	0.4239	0.2843	0.727	0.198
Mof_O 	O 	0.4762	0.4848	0.6501	-0.36
Mof_O 	O 	0.3813	0.3174	0.7264	-0.356
Mof_O 	O 	0.4702	0.5163	0.6989	0.215
Mof_C 	C 	0.9736	0.0995	0.2539	-0.17
Mof_C 	C 	0.0543	0.1484	0.1344	0.054
Mof_C 	C 	0.0981	0.0737	0.1704	0.072
Mof_C 	C 	0.9785	0.1029	0.2581	-0.147
Mof_N 	N 	0.0653	0.018	0.2607	-0.146
Mof_N 	N 	0.9673	0.107	0.2787	0.4
Mof_N 	N 	0.9707	0.1982	0.1829	-0.163
Mof_O 	O 	0.9239	0.2157	0.273	0.202
Mof_O 	O 	0.9762	0.0152	0.3499	-0.362
Mof_O 	O 	0.8813	0.1826	0.2736	-0.359
Mof_O 	O 	0.9702	0.9837	0.3011	0.214
Mof_C 	C 	0.2461	0.0264	0.5995	-0.17
Mof_C 	C 	0.3656	0.9457	0.6484	0.055
Mof_C 	C 	0.3296	0.9019	0.5737	0.068
Mof_C 	C 	0.2419	0.0215	0.6029	-0.149
Mof_N 	N 	0.2393	0.9347	0.518	-0.152
Mof_N 	N 	0.2213	0.0327	0.607	0.404
Mof_N 	N 	0.3171	0.0293	0.6982	-0.16
Mof_O 	O 	0.227	0.0761	0.7157	0.201
Mof_O 	O 	0.1501	0.0238	0.5152	-0.367
Mof_O 	O 	0.2264	0.1187	0.6826	-0.359
Mof_O 	O 	0.1989	0.0298	0.4837	0.225
Mof_C 	C 	0.7539	0.5264	0.9005	-0.173
Mof_C 	C 	0.6344	0.4457	0.8516	0.054
Mof_C 	C 	0.6704	0.4019	0.9263	0.068
Mof_C 	C 	0.7581	0.5215	0.8971	-0.149
Mof_N 	N 	0.7607	0.4347	0.982	-0.148
Mof_N 	N 	0.7787	0.5327	0.893	0.405
Mof_N 	N 	0.6829	0.5293	0.8018	-0.16
Mof_O 	O 	0.773	0.5761	0.7843	0.205
Mof_O 	O 	0.8499	0.5238	0.9848	-0.346
Mof_O 	O 	0.7736	0.6187	0.8174	-0.363
Mof_O 	O 	0.8011	0.5298	0.0163	0.201
Mof_C 	C 	0.7461	0.4736	0.4005	-0.17
Mof_C 	C 	0.8656	0.5543	0.3516	0.055
Mof_C 	C 	0.8296	0.5981	0.4263	0.071
Mof_C 	C 	0.7419	0.4785	0.3971	-0.149
Mof_N 	N 	0.7393	0.5653	0.482	-0.15
Mof_N 	N 	0.7213	0.4673	0.393	0.402
Mof_N 	N 	0.8171	0.4707	0.3018	-0.159
Mof_O 	O 	0.727	0.4239	0.2843	0.198
Mof_O 	O 	0.6501	0.4762	0.4848	-0.36
Mof_O 	O 	0.7264	0.3813	0.3174	-0.356
Mof_O 	O 	0.6989	0.4702	0.5163	0.215
Mof_C 	C 	0.2539	0.9736	0.0995	-0.17
Mof_C 	C 	0.1344	0.0543	0.1484	0.054
Mof_C 	C 	0.1704	0.0981	0.0737	0.072
Mof_C 	C 	0.2581	0.9785	0.1029	-0.147
Mof_N 	N 	0.2607	0.0653	0.018	-0.146
Mof_N 	N 	0.2787	0.9673	0.107	0.4
Mof_N 	N 	0.1829	0.9707	0.1982	-0.163
Mof_O 	O 	0.273	0.9239	0.2157	0.202
Mof_O 	O 	0.3499	0.9762	0.0152	-0.362
Mof_O 	O 	0.2736	0.8813	0.1826	-0.359
Mof_O 	O 	0.3011	0.9702	0.9837	0.214
Mof_Co	Co	0.3622	0.1378	0.8622	1.215
Mof_Co	Co	0.1378	0.8622	0.3622	1.215
Mof_Co	Co	0.6378	0.6378	0.6378	1.215
Mof_Co	Co	0.8622	0.3622	0.1378	1.215
_end
